<?xml version="1.0" encoding="UTF-8"?>

<!-- generated on 2026-05-08 20:27:40.218425 by Eclipse SUMO randomTrips.py v1.26.0
<configuration>
    <net-file value="rabat.net.xml"/>
    <route-file value="rabat_bus.rou.xml"/>
    <prefix value="bus"/>
    <vehicle-class value="bus"/>
    <period value="10.0"/>
</configuration>
-->

<!-- generated on 2026-05-08T20:27:36.688467+00:00 by Eclipse SUMO duarouter 1.26.0
<duarouterConfiguration xmlns:xsi="http://www.w3.org/2001/XMLSchema-instance" xsi:noNamespaceSchemaLocation="http://sumo.dlr.de/xsd/duarouterConfiguration.xsd">

    <input>
        <net-file value="rabat.net.xml"/>
        <route-files value="trips.trips.xml"/>
    </input>

    <output>
        <output-file value="rabat_bus.rou.xml"/>
        <alternatives-output value="NUL"/>
    </output>

    <time>
        <begin value="0"/>
        <end value="3600.0"/>
    </time>

    <report>
        <no-warnings value="true"/>
        <ignore-errors value="true"/>
        <no-step-log value="true"/>
    </report>

</duarouterConfiguration>
-->

<routes xmlns:xsi="http://www.w3.org/2001/XMLSchema-instance" xsi:noNamespaceSchemaLocation="http://sumo.dlr.de/xsd/routes_file.xsd">
    <vType id="bus_bus" vClass="bus"/>
    <vehicle id="bus0" type="bus_bus" depart="0.00">
        <route edges="288715975#1 37868824#1 37868824#2 37868824#3 37868824#5 37868824#6 37868824#7 37868824#8 37868824#9 37868824#10 611387398#1 611387398#2 611387398#3 611387398#4 1100968074 544779497#0 544779497#1 544779497#2 544779497#3 544779497#4 544779497#6 544779497#7 1101086543#0 1101086543#1 1101086543#2 608726566#0 608726566#1 608726566#2 608726566#3 608726566#4 97977113#1 97977113#3 1101965831 122125022 1101232929 1100965168 1105338506 152606694#0 152606694#1 152606694#2 34919486#0 34919486#4 34919486#8 34919486#14 610590168 610590167#0 610590167#1 610590166 125295514#0 148088823#0 148088823#1 160507867 1349802486 1349802485#0 1349802485#1 510612260#0 510612260#3 606437962 510612261 1383728114 42305069#0 42305069#2 365618919#1 365618919#2 365618919#4 365618919#5 590081362#1 607200443#0 607200443#3 607200443#6 607200443#7 607200443#9 965613758#22 965613758#24 965613758#27 4330480#0 4330480#2 1274615116 1102462010 1312714882 1312714883 172506327#0 172506327#1 114291077#0 114291077#2 114291077#4 114291077#5 114291077#6 1101515922 609618986#0 609618986#1 609618986#2 590150504#0 590150504#1 590150504#2 35034744 35160898 1383759661 343197570 1383759660 1277818404#0 1277818404#1 1277818404#2 1101528872 1102590927 609590323#0 1443589085 1426778386#1 1384048029 -159312013#4 -159312013#3 -159312013#1 -159312013#0 1426778389 555597062#5 555597062#6 555597062#7 555597091#0 555597080 584007015#0 1101582951#1 1278167001 555597094 555597063#0 1427965297#0 1427965299 35160556#0 35160556#2 35160556#4 1427967349 834232627 834232629 608452585 -608452588#4 -608452588#3 -608452588#1 585546550#0 1101528875 585546582#0 585546582#1 637129420#0 637129420#1 -722209607 585546569#0 1102174133 585546581 1102174134 585546571#0 -585546559#16 -585546559#14 -585546559#12 -585546559#10 -585546559#9 -585546559#7 -585546559#4 -585546559#2 -585546559#1 -585546559#0 592453497#0 592453497#1 1101553941#0 1101553941#1 585546552#0 585546576#0 585546576#1 1278191058#0 607748735#2 607748735#3 1278191049 1101553950 176729731#0 176729731#2 176729731#3 176729731#5 176729731#6 176729731#8 -594275681#3 -1268506660"/>
    </vehicle>
    <vehicle id="bus1" type="bus_bus" depart="10.00">
        <route edges="-584714395 -584714396#2 -38771272#2 -38771272#1 -38771272#0 -27114705#21 -27114705#18 -27114705#16 -27114705#15 -27114705#14 -27114705#12 -27114705#11 -27114705#9 -27114705#8 -27114705#7 -27114705#3 -27114705#1 -27114705#0 27114678#0 27114678#1 27114678#2 27114678#3 27114678#5 590446468 745050594#0 745050596#2 745050596#3 745050596#4 1101582894#11 1101582894#12 1101582894#13 1101582894#14 1101582894#16 1101582894#17 1101582894#18 1101582894#19 1101582894#20 1101582894#21 1101582894#22 442128913#2 442128913#3 442128913#4 442128913#7 442128913#8 442128913#9 442128913#11 442128913#13 442128913#15 442128913#17 442128913#18 152850448#7 152850448#0 152850448#1 152850448#2 152850450#0 411814366#10 411814366#11 1167748667#0 1378009613 160454537#0 1096903910 1378009615 1101553935#0 1101553935#1 1101553935#2 555597081#0 555597081#2 555597081#5 555597081#7 176729741#0 176729741#1 176729741#2 1383768642 176729774 1383768644 176729690#0 176729690#1 176729690#3 176729690#4 176729690#5 176729690#6 176729690#7 176729690#8 722479008 156345559#0 156345559#1 1101346493#0 309750238#0 309750238#1 309750238#2 309750238#3 152804621#0 152804621#2 152804621#3 152804621#4 152804621#6 152804621#8 152804621#9 566428685#13 566428685#15 566428685#16 566428685#17 566428685#19 566428685#20 857521304#0 857521304#2 729978622#0 729978622#1 452728838#0 452728838#1 270475120#0 610610809#0 610610809#2 610610809#4 165725233 1101363561 1101363560 1101363563#0 1101363558#0 -654504937#9 -1391742479 -351477800#2 413359532#0 413359532#2 1279045421 1101553921 1376122606#0 1101929280#0 607475402 176729639 589841800#1 589841800#2 589841800#3 -101918114#1 -101918114#0 -445902196#2"/>
    </vehicle>
    <vehicle id="bus2" type="bus_bus" depart="20.00">
        <route edges="4330417#1 -34839565#0 -725687816#13 -725687816#8 -725687816#4 -966783769#8 -966783769#5 -966783769#4 -411821072#7 411821069#7 411821069#10 411821069#11 411821069#12 411821069#13 411821069#15 609567711 753769683 753769681 753769682 37138120 411821079#0 411821079#4 1101363570#0 1101363570#1 1101363570#2 1101363570#3 1101363570#4 609289788#0 609289788#1 609289788#2 160452796 160452795 4724374#0 4724374#1 4724374#5 4724374#8 4724374#11 609299336#0 609299336#2 609299336#3 609299336#5 609299336#6 609299336#7 1101346490#0 1101346490#2 1101553930 1101553931 156345559#0 156345559#1 1101346493#0 309750238#0 1241481483 722479010#1 722479010#3 722479010#4 722479010#5 1097948911 1452757165#0 475368302#0 475368302#1 -590165486#7 -590165486#2 -590165486#1 -637135717#2 35132856 35132858#1 35132858#2"/>
    </vehicle>
    <vehicle id="bus3" type="bus_bus" depart="30.00">
        <route edges="610281623 -610281623 745502108#0 411821067#1 411821067#2 411821067#3 411821067#4 721665022#1 609041744#0 609041744#2 609041744#5 609041744#7 609041744#9 1101363574#2 1101363576 1101363575#0 411821065#0 411821065#2 -35132428#6 -35132428#5 -207076155#1 -207076155#0"/>
    </vehicle>
    <vehicle id="bus4" type="bus_bus" depart="40.00">
        <route edges="101918064#5 -165718097 101918060#3 101918060#4 687997384#5 687997384#7 607752363#0 607752363#3 -101917649#5 -101917649#4 70192794#7 70192794#9 70192794#10 70192794#11 70192794#12 70192794#13 70192794#14 70192794#15 70192794#16 70192794#17 70192794#18 70192794#19 70192794#22 70192794#24 70192794#25 70192794#26 70192794#27 70192794#28 70192794#29 70192794#30 70192794#31 70192794#32 70192794#34 70192794#36 70192794#38 70192794#39 70192794#41 70192794#42 70192794#43 70192794#44 70192794#45 70192794#46 70192794#47 160213193#1 160213193#2 160213193#3 718339013#0 718339013#2 718339013#4 718339013#5 718339013#6 718339013#7 718339013#9 718339013#11 718339013#13 718339013#14 970083543#2 970083543#3 970083543#4 970083543#5 970083543#7 970083543#8 970083543#9 970083543#11 717669907#0 717669907#1 -1460542440 -592800192#2 -592800192#1 -592800192#0 -592800191#2 -234578784#9 -234578784#7 -234578784#6 -234578784#5 -234578784#4 234578788#2 717697833#0 -1337703001"/>
    </vehicle>
    <vehicle id="bus5" type="bus_bus" depart="50.00">
        <route edges="-4330448#4 4330448#4 4330448#5 4330448#6 -176729648#4 -176729648#3 -176729648#1 -176729648#0 4004874#5 4004874#6 4004874#7 4004874#8 610890130#0 610890130#1 610890130#5 610890130#7 610890130#8 610890130#9 610890130#11 610890130#13 612347912#1 4724293#0 4724293#2 4724293#3 1101363568#0 1101363568#1 1312477637 4004875 1101363566 1101363567 1102641119 731143612#0 731143612#1 4050114#0 4050114#2 4050114#8 1102221193#0 1101346501 1102221194 97673186#0 97673186#1 97673186#4 97673186#5 288715986#0 288715986#2 4330424#0 1275242966#0 97673189#0 97673189#1 97673189#2 97673189#3 97673189#6 97673189#8 97673189#9 97673189#11 97673189#12 97673189#13 97673189#14 97673189#16 97673189#17 97673189#19 -165709240#5 -165709240#4 -165709240#3 -165709240#2 -165709240#1 -165709240#0 -165707493#2 -165707493#1 165708385#10"/>
    </vehicle>
    <vehicle id="bus6" type="bus_bus" depart="60.00">
        <route edges="-1268506781 204371471#3 -611627394 204371475#3 204371475#4 204371475#5 204371475#8 204371475#9 38771273#5 38771273#6 38771273#7 1278191042 1375544798 1101553951#2 4061147#0 4061147#2 4061147#3 4061147#5 4061147#7 4061147#9 1101553954#0 1101553954#1 1101553957 1101553955 1275281135 1101943036#0 1101553958#0 38771288#0 38771288#1 38771288#2 38771288#3 38771288#5 38771288#7 38771288#8 38771288#9 38771288#11 38771288#12 38771288#14 38771288#15 38771288#16 1395780518#0 1395780518#1 -38771292#7"/>
    </vehicle>
    <vehicle id="bus7" type="bus_bus" depart="70.00">
        <route edges="305613175#7 -305613175#7 -305613175#6 -305613175#4 -305613175#3 -305613175#1 -27114705#16 -27114705#15 -27114705#14 -27114705#12 -27114705#11 -27114705#9 -27114705#8 -27114705#7 -27114705#3 -27114705#1 -27114705#0 27114678#0 27114678#1 27114678#2 27114678#3 27114678#5 590446468 745050594#0 745050596#2 745050596#3 745050596#4 1101582894#11 1101582894#12 1101582894#13 1101582894#14 1101582894#16 1101582894#17 1101582894#18 1101582894#19 1101582894#20 1101582894#21 1101582894#22 442128913#2 442128913#3 442128913#4 442128913#7 442128913#8 442128913#9 442128913#11 442128913#13 442128913#15 442128913#17 442128913#18 152850448#7 152850448#0 152850448#1 152850448#2 152850450#0 411814366#10 411814366#11 1167748667#0 967509640#0 599416596#0 599416596#1 599416596#2 599416596#3 964994836 294851597#0 294851597#1 555597067#1 555597067#2 555597067#4 555597067#5 555597067#6 1378009588 609612244#0 609612244#1 609612244#2 408107517#0 408107517#1 1278501385 744481957#0 160540296#0 1378009581#0 1279082431#0 590146349#0 590146349#1 590146349#2 1279034480 159207429#0 159207429#1 159207429#5 1056990348#0 725692781#0 725692781#2 725692781#4 1383773475#0 1383773475#2 1383773475#3 411814342#1 411814342#3 343197571#2 1058687159#0 1058687159#2 1058687159#3 1101929285 1102462008 1101515920 1102462009 4049989#0 4049989#2 1101929286#0 1101929286#1 4061146#0 4061146#1 4061146#3 4061146#11 4061146#13 4061146#16 4061146#19 608428080#0 608428079#1 607200442#0 607200442#4 1101929287 1084380669#0 1383728102#0 131667025 608417330 608417329 160507866 148088770 208303963 272967664#1 1391595647#0 1391595647#1 584347412#0 1100961732#1 1384267778#1 965602177#0 965602177#1 965602177#2 965602177#4 965602177#5 965602177#7 965602177#8 965602177#11 965602177#12 965602177#13 965602177#14 965602177#15 965602177#16 965602177#19 -203944320#11 -203944320#9 -203944320#8 -203944320#7 -203944320#5 203944298#0 203944298#1 203944298#2"/>
    </vehicle>
    <vehicle id="bus8" type="bus_bus" depart="80.00">
        <route edges="-4330536#9 -4330536#8 -4330536#7 -4330536#6 -4330536#4 -4330536#2 1101363581#1 261879978#0 261879978#2 1101363579 1101363577 725687817 1101363580 725687815#0 -725687816#17 -725687816#15 -725687816#14 -725687816#13 -725687816#8 -725687816#4 -437377541#3 718324542 1101346512 497269830#0 159814200#0 159814200#1 159814200#2 1101346509 1101346507#0 97671298#0 157774329 1102701209#0 157774311#0 157774311#3 608440335 608434916 155318426#0 -234578803#2 -234578803#1 -475136903#1 -475136903#0 717661056#1 1101553913 1101751291 -970083543#13 -970083543#11 -970083543#10 -970083543#8 -970083543#7 -970083543#5 -970083543#4 -970083543#3 -970083543#2 -718339013#14 -718339013#13 -718339013#12 -718339013#9 -718339013#7 -718339013#6 -718339013#5 -718339013#4 -718339013#2 -718339013#1 160213193#4 160213193#5 160213193#0 -70192794#47 -70192794#46 -70192794#45 -70192794#44 -70192794#43 -70192794#42 -70192794#41 -70192794#39 -70192794#38 -70192794#36 -70192794#34 -70192794#32 -70192794#31 -70192794#30 -70192794#29 -70192794#28 -70192794#27 -70192794#26 -70192794#25 -70192794#24 -70192794#22 -70192794#20 -70192794#18 -70192794#17 -70192794#16 -70192794#15 -70192794#14 -70192794#13 -70192794#12 -70192794#11 -70192794#10 -70192794#9 -70192794#8 -70192794#6 -70192794#5 -70192794#4 -70192794#3 -70192794#1 70192787#0 1058646313#0 159313096#1 159313096#2 159313096#3 590170543#0 590170543#1 590170543#2 590170543#3 590170543#7 240276611#3 240276611#4 240276611#5 240276611#6 240276611#7 240276611#8 240276611#9 240276611#10 240276611#11 240276611#12 240276611#13 240276611#14"/>
    </vehicle>
    <vehicle id="bus9" type="bus_bus" depart="90.00">
        <route edges="584711604#0 584711604#1 1383746299#0 1278776688#8 1278776688#10 1278556635 1375544786#0 1375544786#1 1375544785#1 1101582892#0 1101582892#2 1101582892#3 1101582892#4 1101582892#6 1101582892#9 1101582892#10 1101582892#13 1101582892#14 1101582892#16 1101582892#17 1101582892#18 1459042517#4 1459042517#5 1459042513#0 1459042513#1 1459042517#0 1375544802 1383746339 538546600#0 538546600#1 4004874#2 4004874#3 4004874#5 4004874#6 4004874#7 4004874#8 610890130#0 610890130#1 610890130#5 610890130#7 610890130#8 610890130#9 610890130#11 610890130#13 612347912#1 4724293#0 4724293#2 4724293#3 1101363568#0 1101363568#1 1312477637 4004875 1101363566 1101363567 1102641119 731143612#0 731143612#1 4050114#0 4050114#2 4050114#8 1102221193#0 1101346501 1102221194 97673186#0 97673186#1 97673186#4 97673186#5 288715986#0 288715986#2 4330424#0 1275242966#0 97673189#0 97673189#1 97673189#2 97673189#3 97673189#6 97673189#8 97673189#9 97673189#11 97673189#12 97673189#13 97673189#14 97673189#16 97673189#17 97673189#19 -165709240#5 -165709181#1 -165709247#4 -165709247#3 -165709247#2 -165709247#1 -101918059#9"/>
    </vehicle>
    <vehicle id="bus10" type="bus_bus" depart="100.00">
        <route edges="584706635#1 259529171#2 259529160#0 8062248#2 -152815019#2 -152815019#0 390081119#1 641021124#2 641021124#4 411821073#0 -411821075#5 -411821075#3 -411821075#2 -411821075#1 -411821075#0 4019915#0 4019915#1 4019915#2 4019915#3 4019915#4 4019915#5 4019915#6 4019915#7 726036908 28187843#0 28187843#1 28187843#2 28187843#3 152797856#0 4049941#0 4049941#1 4049941#2 4049941#4 4049941#5 610890132#10 610890132#11 610890132#13 610890132#15 610890132#17 -4004874#8 -4004874#7 -4004874#6 -4004874#5 -4004874#4 -4004874#2 -538546600#2 -538546600#0 1383746340 719980056 1459042517#2 1459042517#3 1459042517#4 1101553960#0 1101553960#1 1101553960#2 4050028#0 4050028#4 1101553955 607737067 1375544800 607737070#0 1383746298 38771271#0 38771271#2 38771271#5 38771271#7 38771271#8 38771271#9"/>
    </vehicle>
    <vehicle id="bus11" type="bus_bus" depart="110.00">
        <route edges="-610630117#5 610630117#0 610630117#6 610630117#10 610630116 1100965173#0 610630113 -964909012#4 -964909012#2 -456762541#7 -456762541#6 -456762541#4 -456762541#2 -456762541#1 -456762541#0 34921392#0 34921392#2 1105338506 1101086540#0 1101086540#1 1100965169#0 152606687#0 152606687#1 152606687#2 152606687#4 608726567#1 608726567#3 1101086541#0 1101086541#1 1101086541#2 152606689#0 152606689#1 -288715996#5 -288715996#3 -288715996#2 -288715996#1 -288715996#0 -288716009#1"/>
    </vehicle>
    <vehicle id="bus12" type="bus_bus" depart="120.00">
        <route edges="726167513#0 612345685#3 612345685#6 352875137#1 352875137#2 352875137#4 1004599527 1004599525 1004858873 608417330 608417329 160507866 148088770 208303963 272967664#1 208303954#1 208303954#3 208303954#5 34919240#1 152606664#0 152606664#2 152606664#4 152606664#6 152606664#14 1101060713 510609998#0 510609998#1 612298410 606437961#0 606437961#1 1101311002 966769685 606437963 544781463#0 544781463#1 612298416#0 37869225 544776769#0 544776769#2 544776769#3 544776769#4 544776769#5 544776769#7 -241288284#5 -241288284#3 -241288284#2 -611310090"/>
    </vehicle>
    <vehicle id="bus13" type="bus_bus" depart="130.00">
        <route edges="-208145449#1 241288340#6 4330458#1 -1102233964#15 -1102233964#13 -1102233964#12 -1102233964#11 -1102233964#10 -1102233964#9 -1102233964#8 -1102233964#7 -1102233964#5 -1102233964#4 -1102233964#3 -1102233964#2 -718917943 -208455452#5"/>
    </vehicle>
    <vehicle id="bus14" type="bus_bus" depart="140.00">
        <route edges="590131075#0 590131075#1 590131075#2 590131075#3 156355402#11 181033308#0 181033308#1 70192790#2 70192790#3 1312477648 1312477649 1312477644 -736510874 736510873#0 736510873#2 736510873#4 4049983#0 4049983#2 -590168826#0 353546311#0 1101363563#0 1101363563#1 584001891#1 731133408#0 3997580#1 353546314#1 1312477638#0 1312477638#1 1312477642 857521314#0 1376122605 857521313#0 1101553928#0 1101553928#1 272257536 1101553929 152825733#0 -566428685#21 -566428685#19 -566428685#17 -566428685#16 -566428685#15 -566428685#14 -566428685#9 -566428685#5 -566428685#4 -566428685#3 -566428685#2 -566428685#1 -566428685#0 967530870#0 967530870#1 592440643#1 1101363565#2 309750209#0 309750209#3 309750209#5 309750209#8 152819206#0 152819206#2 152819206#4 1101363566 1101363567 1102641119 1101346500 1102641120 1101346499 1102641118 731143611#0 731143611#1 153028843#0 -610890130#13 -611269708#5 -28187843#4 -28187843#2 -28187843#1 -28187843#0 -726036908 -4019915#7 -4019915#6 -4019915#5 -4019915#4 -4019915#3 -4019915#2 -4019915#1 -4019915#0 411821075#0 411821075#1 411821075#2 411821075#3 411821075#4 609270686#0 390081118#0 390081118#4 176729787#1 4049928#0 721665022#1 721665022#2 721665022#3 721665022#4 411821067#1 411821068#0 4019941#0 4019939#0 4019939#2 249631262#0 249631262#1"/>
    </vehicle>
    <vehicle id="bus15" type="bus_bus" depart="150.00">
        <route edges="584708386#0 -594275699#4 38771292#11 38771292#12 1383746337#0 964927192#14 964927192#15 964927192#16 482359729#0 731717090#0 730287327 409948553 409948549#0 409948549#1 -1375554809 -409948550#14 -409948550#13 -409948550#12 -409948550#11 -409948550#10 -409948550#7 -185885463#15 -185885463#14 -185885463#13 -185885463#12 -185885463#11 4330312"/>
    </vehicle>
    <vehicle id="bus16" type="bus_bus" depart="160.00">
        <route edges="176729781#3 176729678 1341859445#13 1341859445#14 4330414#0 4330414#1 4330414#2 1274999060#3 1274999060#4 1274999061#0 1274999061#1 1274999061#2 1274999061#3 1274999061#4 1274999061#5 152666107#0 152666107#3 152666107#4 152666107#5 -589898781#2 -589898781#1 -589898781#0 28187843#0 28187843#1 28187843#2 28187843#3 611269708#1 610890130#13 612347912#1 4724293#0 4724293#2 4724293#3 1101363568#0 1101363568#1 1312477637 35077601#0 35077601#1 35077601#2 4724374#0 4724374#1 4724374#5 4724374#8 4724374#11 4004854#0 566428685#0 566428685#1 566428685#2 566428685#3 566428685#4 566428685#5 566428685#8 566428685#13 566428685#15 566428685#16 566428685#17 566428685#19 566428685#20 857521304#0 857521304#2 729978622#0 729978622#1 452728838#0 452728838#1 270475120#0 610610809#0 610610809#2 610610809#4 165725233 1101363561 1101363557#0 590168826#0 1375845697#0 584962312#0 1312520847 1312520846 1312520851 4049976#0 4049976#1 4061171#0 4061171#3 4061171#4 4061171#8 4061171#10 4061171#11 4061171#13 395162136#0 75954661#0 75954661#11"/>
    </vehicle>
    <vehicle id="bus17" type="bus_bus" depart="170.00">
        <route edges="-721634502 584731555#2 584731554#0 584731554#1 584731554#2 208145452#18 208145448#0 208145448#1 208145448#2 208145448#3 208145448#5 208145448#6 208145448#7 208145448#8 181033300#21 181033300#23 35039366 157774318#1 157774318#2 157774318#3 1102701208#0 1102701208#1 97673194 157774332#0 157774332#1 157774332#2 97673184 157774310#0 1101346507#2 159814198#0 1101346511#0 1101346511#1 1101346513#1 718324543 437377541#0 4330472#0 205214950#0 205214950#1"/>
    </vehicle>
    <vehicle id="bus18" type="bus_bus" depart="180.00">
        <route edges="584731512 -208145460#2 -208145460#1 719423830#2 719423830#3 719423830#4 719423830#6 1312929257 1312929256#0 1312929256#1 181033327#0 181033327#1 181033327#4 1383966744#7 1383966744#8 1383966744#1 1383966745#0 1383966745#2 1383966745#3 1383966745#4 1383966745#5 1383966745#8 608732488#2 1101762130 1101762129#0 1101762129#1 1101762129#2 181033300#0 181033300#3 181033300#4 181033300#6 181033300#7 181033300#8 181033300#10 181033300#11 181033300#12 181033300#14 181033300#16 181033300#18 181033300#20 181033300#21 181033300#23 35039366 157774318#1 157774318#2 157774318#3 1102701208#0 1102701208#1 97673194 157774332#0 157774332#1 157774332#2 97673184 157774310#0 1101346507#2 159814198#0 1101346511#0 1101346511#1 1101346513#1 718324543 437377541#0 725687816#0 725687816#5 725687816#10 725687816#14 725687816#15 725687816#16 205146918#0 1101363578 1101346514 1101363579 609289809#0 835086345#1 835086345#2 835086345#3 835086345#4 700435675#0 700435675#1 700435675#2 700435675#4 700435675#6 584719792 259883522#0"/>
    </vehicle>
    <vehicle id="bus19" type="bus_bus" depart="190.00">
        <route edges="594275676#0 594275670#0 -594275691#1 -594275691#0 -176729731#10 -176729731#8 -176729731#6 -176729731#5 -176729731#4 -176729731#2 -176729731#0 1101553949#2 1278191054 607748735#0 1278191057#0 -585546576#2 -585546576#0 585546579#0 585546579#1 1101553941#3 1101553942 300053725 585546564#0 585546559#0 585546559#1 585546559#2 585546559#3 585546559#6 585546559#8 585546559#10 585546559#12 585546559#13 585546559#15 590430178#0 1101553938#0 1101553938#1 1101553938#2 585546572#0 722209607 585546570#0 585546570#2 722239254 585546560#0 585546560#1 1101528877 1101528874 1102443539 585546567#0 608452588#0 608452588#2 608452588#4 608452584 608452583#0 608452583#1 608452583#2 608452587 585546578#1 585546578#2 585546578#4 585546578#5 442128772#2 607475700#0 1378009613 160454537#0 1096903910 1378009615 1101553935#0 1101553935#1 1101553935#2 555597081#0 555597081#2 555597081#5 555597081#7 176729741#0 176729741#1 176729741#2 1383768642 176729774 1383768644 176729690#0 176729690#1 176729690#3 176729690#4 176729690#5 176729690#6 176729690#7 176729690#8 722479008 156345559#0 156345559#1 1101346493#0 309750238#0 309750238#1 309750238#2 309750238#3 152804621#0 152804621#2 152804621#3 152804621#4 152804621#6 152804621#8 152804621#9 152804621#11 152804621#13 152804621#15 152804621#17 152804621#18 152804621#20 455782034#0 455782034#1 165719008#0 165719008#4 1102221194 97673186#0 97673186#1 97673186#4 97673186#5 288715986#0 288715986#2 4330424#0 4330424#2 4330424#3 4330424#5 1313302752#1 1313302752#2 1058028975#0 1058028975#3 1101751323 1101553919 1101751324 970083542#0 970083542#2 970083542#4 -589854052#20 -589854052#17 -589854052#15 -589854052#14 -589854052#10 -589854052#9 -589854052#8 -589854052#7 -589854052#6 -589854052#4 -589854052#3 -589854052#1 -589854052#0 -121088450#30 -121088450#29 -121088450#28 -121088450#27 -121088450#26 -121088450#24 -121088450#22 -121088450#20 -121088450#19 -121088450#18 -121088450#16 -121088450#15 -121088450#14 -121088450#13 -121088450#11 -121088450#9 584729663#2 718359358#0 718359358#1 718359358#2 208638570#2"/>
    </vehicle>
    <vehicle id="bus20" type="bus_bus" depart="200.00">
        <route edges="38771274#0 38771274#2 38771274#3 -204371466#1 -204371466#0 719352835 739907909#5 719351323 1383746342 1278776677#0 1278776677#1 1278776677#2 1278776677#4 1101553951#0 1101553951#1 1101553951#2 4061147#0 4061147#2 4061147#3 4061147#5 4061147#7 4061147#9 1101553954#0 1101553954#1 607737073#0 607737073#2 607737073#7 1101582893#1 1459042513#0 1459042513#1 1459042517#0 1375544802 1383746339 538546600#0 538546600#1 4004874#2 4004874#3 4004874#5 4004874#6 4004874#7 4004874#8 610890130#0 610890130#1 610890130#5 610890130#7 610890130#8 610890130#9 610890130#11 610890130#13 612347912#1 4724293#0 4724293#2 4724293#3 1101363568#0 1101363568#1 1312477637 4004875 1101363566 1101363567 1102641119 731143612#0 731143612#1 4050114#0 4050114#2 4050114#8 1102221193#0 1101346501 1102221194 97673186#0 97673186#1 97673186#4 97673186#5 288715986#0 288715986#2 4330424#0 4330424#2 4330424#3 4330424#5 1313302752#1 1313302752#2 1058028975#0 1058028975#3 1101751323 1101553919 1101751324 1101553918 1101751322 1101553920 1102174136#0 -160213188#1"/>
    </vehicle>
    <vehicle id="bus21" type="bus_bus" depart="210.00">
        <route edges="-451752842#0 -584726376#5 -584726376#4 -584726376#2 -584726376#0 592440636 -121088452#16 -121088452#15 -121088452#14 -121088452#13 -121088452#12 -121088452#11 -121088452#10 -121088452#8 -121088452#7 -121088452#6 -121088452#5 -121088452#4 -121088452#3 -121088452#2 -121088452#1 -1102233963#13 -1102233963#11 -1102233963#9 -1102233963#8 -1102233963#6 -1102233963#4 -1102233963#3 -1102233963#2 -1102233963#1 -1102233963#0 584727021#2 4330450#0 4330450#1 4330450#2 1102233960 1102233961 4330543#0 4330543#2 4330543#4 1101553901#2 1101553904 4061048 121088461#0 121088461#4 121088461#6 121088461#8 1101762127 157774330#0 157774330#4 157774330#6 157774330#8 208145440#1 -584731550#4 -584731539#3"/>
    </vehicle>
    <vehicle id="bus22" type="bus_bus" depart="220.00">
        <route edges="-201950744#6 -201950744#5 -201950744#3 715821282#7 715821282#10 715821282#11 715821282#12 610630117#0 610630117#6 610630117#10 610630116 1100965173#0 610630113 -964909012#4 -964909012#2 -208468388#5 -208468388#4 -208468388#2 208468394#0 34919486#4 34919486#8 34919486#14 610590168 610848267 475145776#0 475145776#1 -475145776#5"/>
    </vehicle>
    <vehicle id="bus23" type="bus_bus" depart="230.00">
        <route edges="-208636971 -205290544#8 -205290544#4 34828860#0 34828860#1 34828860#2 34828860#3 34828860#4 34828860#5 34828860#6 34828860#8 34828860#9 34828860#10 34828860#11 34828860#14 34828860#16 34828860#17 34828860#18 34828860#19 34828860#20 34828860#21 34828860#22 34828860#23 34828860#24 34828860#25 34828860#26 34828860#28 34828860#29 1482924543#1 1482924543#2 1482924543#3 411821074 584719785#1 753769682 967530871 1101363573 538546683#0 538546683#2 170779409#0 170779409#1 170779409#3 611330528#0 1102221224 611330526#0 -35039890#7 -35039890#5 -35039890#4 609331120 611330514 609331121 -609331119#4 4341618 411821082#0 612347914 160456677#0 160456677#1 160456677#8 152500604#3 -584724508#3"/>
    </vehicle>
    <vehicle id="bus24" type="bus_bus" depart="240.00">
        <route edges="28141238#2 -4061115#0 176729685#1 176729685#2 1109978191 1102443590#2 1102443591 610285207#0 1109978194#0 205146917#0 205146917#2 205146917#3 205146917#6 205146917#7 205146917#8 411821073#0 609270686#0 411821072#0 411821072#2 411821072#3 411821072#5 411821072#7 966783769#1 966783769#5 966783769#6 -437377541#3 718324542 1101346512 497269830#0 159814200#0 159814200#1 159814200#2 1101346509 1101346507#0 97671298#0 157774329 1102701209#0 157774311#0 157774311#3 608440335 608434916 155318426#0 -234578803#2 -234578803#1 -475136903#1 -475136903#0 717661056#1 1101553913 1101751291 -970083543#13 -970083543#11 -970083543#10 208638528#0 208638528#1 208638528#3 208638528#4 -121088450#26 -584726358#8 -584726358#7 -584726358#6 -584726358#5 -719676917"/>
    </vehicle>
    <vehicle id="bus25" type="bus_bus" depart="250.00">
        <route edges="-719318753#0 585478825 445834580#2 445834580#3 445834580#4 445834580#5 445834580#7 445834580#8 445834580#9 70192783#6 1058645409#0 1058645409#5 1058645409#6 1058645409#7 1058645408#0 687997384#0 687997384#1 687997384#3 687997384#5 687997384#7 687997384#8 687997384#10 687997384#12 1058646313#0 159313096#1 159313096#2 159313096#3 590170543#0 590170543#1 590170543#2 590170543#3 590170543#7 590170543#8 1101762124#2 -4061171#13 -4061171#11 -4061171#10 -4061171#8 -4061171#5 -4061171#3 -4061171#2 1312520849#0 1312520849#1 1312520850 1312520845#0 1312520848 1312520847 160201037#0 160201037#1 160201037#4 160201037#5 160201037#6 160201037#7 160201037#8 160201037#9 160201037#11 160201037#12 160201037#13 160201037#14 160201037#16 1101929290#0 1101929290#1 160201041#2 1101528871 744489634 611284774#0 611284774#1 -611284772#1 -1058657648 -852711782#2 -852711782#1 -852711782#0 -855429446 852711781 1056990347 725692781#0 725692781#2 725692781#4 1383773475#0 1383773475#2 1383773475#3 411814342#1 411814342#3 343197571#2 1058687159#0 1058687159#2 1058687159#3 1101929285 1102462008 610604718 -4060987#10 -4060987#7 -4060987#3 -4060987#1"/>
    </vehicle>
    <vehicle id="bus26" type="bus_bus" depart="260.00">