<?xml version="1.0" encoding="UTF-8"?>

<!-- generated on 2026-05-08 20:29:26.464264 by Eclipse SUMO randomTrips.py v1.26.0
<configuration>
    <net-file value="rabat.net.xml"/>
    <route-file value="rabat_motos.rou.xml"/>
    <prefix value="moto"/>
    <vehicle-class value="motorcycle"/>
    <period value="3.0"/>
</configuration>
-->

<!-- generated on 2026-05-08T20:29:07.513619+00:00 by Eclipse SUMO duarouter 1.26.0
<duarouterConfiguration xmlns:xsi="http://www.w3.org/2001/XMLSchema-instance" xsi:noNamespaceSchemaLocation="http://sumo.dlr.de/xsd/duarouterConfiguration.xsd">

    <input>
        <net-file value="rabat.net.xml"/>
        <route-files value="trips.trips.xml"/>
    </input>

    <output>
        <output-file value="rabat_motos.rou.xml"/>
        <alternatives-output value="NUL"/>
    </output>

    <time>
        <begin value="0"/>
        <end value="3600.0"/>
    </time>

    <report>
        <no-warnings value="true"/>
        <ignore-errors value="true"/>
        <no-step-log value="true"/>
    </report>

</duarouterConfiguration>
-->

<routes xmlns:xsi="http://www.w3.org/2001/XMLSchema-instance" xsi:noNamespaceSchemaLocation="http://sumo.dlr.de/xsd/routes_file.xsd">
    <vType id="moto_motorcycle" vClass="motorcycle"/>
    <vehicle id="moto0" type="moto_motorcycle" depart="0.00">
        <route edges="288715979#0 -288715979#0 -590785499#16 -590785499#15 -590785499#14 -590785499#11 34923119#3 34923119#5 34923119#7 34923119#8 -203944308#14 -203944308#13 -203944308#12 -203944308#11 -203944308#9 -203944308#8 -203944308#6 -203944308#5 -203944308#4 -203944308#2 -203944308#1 -584761839 160403546#20 160403546#22 610590169 510611522 610590168 610590167#0 610590167#1 610590166 125295514#0 148088823#0 148088823#1 160507867 1349802486 1349802485#0 1349802485#1 510612260#0 510612260#3 606437962 510612261 1383728114 42305069#0 42305069#2 365618919#1 365618919#2 365618919#4 365618919#5 590081362#1 607200443#0 607200443#3 607200443#6 607200443#7 607200443#9 965613758#22 965613758#24 965613758#27 4330480#0 4330480#2 1274615116 1102462010 1312714882 1312714883 172506327#0 172506327#1 114291077#0 114291077#2 114291077#4 114291077#5 114291077#6 1101515922 609618986#0 609618986#1 609618986#2 590150504#0 590150504#1 590150504#2 35034744 35160898 1383759661 343197570 1383759660 1277818404#0 1277818404#1 1277818404#2 1101528872 1102590927 609590323#0 1443589085 1426778386#1 1384048029 -159312013#4 -159312013#3 -159312013#1 -159312013#0 1426778389 555597062#5 555597062#6 555597062#7 555597091#0 555597080 584007015#0 1101582951#1 1278167001 555597094 555597063#0 1427965297#0 1427965299 35160556#0 35160556#2 35160556#4 1427967349 834232627 834232629 608452585 -608452588#4 -608452588#3 -608452588#1 585546550#0 1101528875 585546582#0 585546582#1 1102174132#0 1375544791 585546574#2 585546574#4 585546574#6 585546574#7 35160536#0 4050044#18 38511123#0 38511123#3 38511123#4 -725084404#4 -725084404#2 -119089243#16 1268506671#0 -1268506671#2"/>
    </vehicle>
    <vehicle id="moto1" type="moto_motorcycle" depart="3.00">
        <route edges="-584714400#5 584714394#1 584714394#2 -584714401#0 305613175#10 4061147#3 4061147#5 4061147#7 4061147#9 1101553954#0 1101553954#1 607737073#0 607737073#2 607737073#7 1101582893#1 1459042513#0 1459042513#1 1459042517#0 1375544802 1383746339 538546600#0 538546600#1 4004874#2 4004874#3 4004874#5 4004874#6 4004874#7 4004874#8 610890130#0 610890130#1 610890130#5 610890130#7 610890130#8 610890130#9 610890130#11 610890130#13 612347912#1 4724293#0 4724293#2 4724293#3 1101363568#0 1101363568#1 1312477637 4004875 1101363566 1101363567 1102641119 731143612#0 731143612#1 4050114#0 4050114#2 4050114#8 1102221193#0 1101346501 1102221194 97673186#0 97673186#1 97673186#4 97673186#5 288715986#0 288715986#2 4330424#0 4330424#2 4330424#3 4330424#5 1313302752#1 1313302752#2 1058028975#0 1058028975#3 1101751323 1101553919 1101751324 970083542#0 970083542#2 970083542#4 -589854052#20 -589854052#17 -589854052#15 -589854052#14 -589854052#10 -589854052#9 -589854052#8 -589854052#7 -589854052#6 -589854052#4 -589854052#3 -589854052#1 -589854052#0 -121088450#30 -121088450#29 -121088450#28 -121088450#27 -208638528#4 208638545#0 451752682#1 451752682#2 -451752681#1"/>
    </vehicle>
    <vehicle id="moto2" type="moto_motorcycle" depart="6.00">
        <route edges="4330423#6 -590152497#7 -590152497#5 -590152497#3 -590152497#0 35133841#8"/>
    </vehicle>
    <vehicle id="moto3" type="moto_motorcycle" depart="9.00">
        <route edges="610299681#0 610299681#1 165725199#0 165725168#1 4049983#2 -590168826#0 353546311#0 1101363563#0 1101363563#1 584001891#1 731133408#0 3997580#1 353546314#1 1312477638#0 1312477638#1 1312477642 857521314#0 1376122605 857521313#0 1101553928#0 1101553928#1 272257536 1101553929 152825733#0 -566428685#21 -566428685#19 -566428685#17 -566428685#16 -566428685#15 -566428685#14 -566428685#9 -566428685#5 -566428685#4 -566428685#3 -566428685#2 -566428685#1 -566428685#0 967530870#0 967530870#1 592440643#1 1101363565#2 309750209#0 309750209#3 309750209#5 309750209#8 1313381333 160452799 392136732 609289786#0 609289786#2 266636990#0 266636990#1 266636990#2 160452798#0 160452798#4 1101363573 753769640 753769684 4019871#0 4019871#5 4019871#6 4019871#11 4019871#13 35132428#0 35132428#2 35132428#3 35132428#4 35132428#5 35132428#6 35132428#8 35132428#10 205212269#0 -4330417#0 -207076153#0"/>
    </vehicle>
    <vehicle id="moto4" type="moto_motorcycle" depart="12.00">
        <route edges="101918059#7 -165709240#0 70192794#13 70192794#14 70192794#15 70192794#16 70192794#17 70192794#18 70192794#19 70192794#22 70192794#24 70192794#25 70192794#26 70192794#27 70192794#28 70192794#29 70192794#30 70192794#31 70192794#32 70192794#34 70192794#36 70192794#38 70192794#39 70192794#41 70192794#42 70192794#43 70192794#44 70192794#45 70192794#46 70192794#47 160213193#1 160213193#2 160213193#3 718339013#0 718339013#2 718339013#4 718339013#5 718339013#6 718339013#7 718339013#9 718339013#11 718339013#13 718339013#14 -121088450#30 -121088450#29 -121088450#28 -121088450#27 -121088450#26 -121088450#24 -121088450#22 -121088450#20 -121088450#19 -121088450#18 -121088450#16 -121088450#15 -121088450#14 -121088450#13 -121088450#11 -121088450#9 584729663#2 584729663#3 718342522#0 -1337702999"/>
    </vehicle>
    <vehicle id="moto5" type="moto_motorcycle" depart="15.00">
        <route edges="-4330472#1 -4330472#0 -437377541#3 718324542 1101346512 497269830#0 159814200#0 159814200#1 159814200#2 1101346509 1101346507#0 97671298#0 157774329 1102701209#0 157774311#0 157774311#3 608440335 608434916 155318426#0 -234578803#2 -234578803#1 -475136903#1 -475136903#0 717661056#1 1101553913 1101751291 -970083543#13 -970083543#11 -970083543#10 -970083543#8 -970083543#7 -970083543#5 -970083543#4 -970083543#3 -970083543#2 -718339013#14 -718339013#13 -718339013#12 -718339013#9 -718339013#7 -718339013#6 -718339013#5 -718339013#4 -718339013#2 -718339013#1 160213193#4 160213193#5 160213193#0 -70192794#47 -70192794#46 -70192794#45 -70192794#44 -70192794#43 -70192794#42 -70192794#41 -70192794#39 -70192794#38 -70192794#36 -70192794#34 -70192794#32 -70192794#31 -70192794#30 -70192794#29 -70192794#28 -70192794#27 -70192794#26 -70192794#25 -70192794#24 -70192794#22 -70192794#20 -70192794#18 -70192794#17 -70192794#16 -70192794#15 -70192794#14 -70192794#13 -70192794#12 165707400#0 101917625#11 101917625#13 101917625#15 165707883#0"/>
    </vehicle>
    <vehicle id="moto6" type="moto_motorcycle" depart="18.00">
        <route edges="-1268506781 204371471#3 -611627394 -204371475#1 -204371475#0 -204371466#5 -204371466#4 -204371466#2 -204371466#1 -204371466#0 719352835 739907909#5 739907909#0 745050591 176729733#2 176729733#5 1383746344#0 1101553950 1101553949#2 1278191054 607748735#0 1278191057#0 -585546576#2 -585546576#0 585546579#0 585546579#1 1101553941#3 1101553942 300053725 585546564#0 585546559#0 585546559#1 585546559#2 585546559#3 585546559#6 585546559#8 585546559#10 585546559#12 585546559#13 585546559#15 590430178#0 1101553938#0 1101553938#1 1101553938#2 585546572#0 722209607 585546570#0 585546570#2 722239254 585546560#0 585546560#1 1101528877 1101582947#0 294851599#0 294851599#6 294851599#7 294851599#9 1427965303#0 1427965303#3 -38771703#2"/>
    </vehicle>
    <vehicle id="moto7" type="moto_motorcycle" depart="21.00">
        <route edges="305613433#0 -305613433#0 315105573#9 315105573#10 315105573#12 315105573#13 315105573#14 1278776688#1 1278776688#2 1278776688#3 1278776688#7 1278776688#8 1278776688#10 1278556635 1375544786#0 1375544786#1 1375544785#1 1101582892#0 1101582892#2 1101582892#3 1101582892#4 1101582892#6 1101582892#9 1101582892#10 1101582892#13 1101582892#14 1101582892#16 1101582892#17 1101582892#18 1459042517#4 1459042517#5 1459042513#0 1278556625#0 1101582894#0 1101582894#1 1101582894#9 1101582894#11 1101582894#12 1101582894#13 1101582894#14 1101582894#16 1101582894#17 1101582894#18 1101582894#19 1101582894#20 1101582894#21 1101582894#22 442128913#2 442128913#3 442128913#4 442128913#7 442128913#8 442128913#9 442128913#11 442128913#13 442128913#15 442128913#17 442128913#18 152850448#7 152850448#0 152850448#1 152850448#2 152850450#0 411814366#10 411814366#11 1167748667#0 967509640#0 599416596#0 599416596#1 599416596#2 599416596#3 964994836 294851597#0 294851597#1 555597067#1 555597067#2 555597067#4 555597067#5 555597067#6 1378009588 609612244#0 609612244#1 609612244#2 408107517#0 408107517#1 1278501385 744481957#0 160540296#0 1378009581#0 1279082431#0 590146349#0 590146349#1 590146349#2 1279034480 159207429#0 159207429#1 159207429#5 1056990348#0 725692781#0 725692781#2 725692781#4 1383773475#0 1383773475#2 1383773475#3 411814342#1 411814342#3 343197571#2 1058687159#0 1058687159#2 1058687159#3 1101929285 1102462008 1101515920 1102462009 4049989#0 4049989#2 1101929286#0 1101929286#1 4061146#0 4061146#1 4061146#3 4061146#11 4061146#13 4061146#16 4061146#19 608428080#0 608428079#1 607200442#0 607200442#4 1101929287 1084380669#0 1383728102#0 131667025 608417330 608417329 160507866 148088770 208303963 272967664#1 1391595647#0 1391595647#1 584347412#0 1100961732#1 1384267778#1 965602177#0 965602177#1 965602177#2 965602177#4 965602177#5 965602177#7 965602177#8 965602177#11 965602177#12 965602177#13 965602177#14 965602177#15 965602177#16 965602177#19 -203944320#11 -203944320#9 -203944320#8 -203944320#7 -203944320#5 203944298#0 203944298#1"/>
    </vehicle>
    <vehicle id="moto8" type="moto_motorcycle" depart="24.00">
        <route edges="-437377531#22 198724455#2 198724455#10 198724455#11 411821083#2 160456679 411821082#0 612347914 160456677#0 160456677#1 160456677#8 160456677#14 607739507#2 1101346504 1101346503 1102221193#0 35039813#0 35039813#1 35039813#3 1102221190#0 165718923#3 729958445#0 729958445#1 729958447#0 729958447#2 365778778#0 365778778#1 365778778#4 365778778#5 365778778#6 365778778#8 1097952560#0 857521315#0 857521315#2 1101553929 967530869 729978622#0 729978622#1 452728838#0 452728838#1 270475120#0 610610809#0 610610809#2 610610809#4 165725233 1101363561 1101363557#0 590168826#0 1375845697#0 584962312#0 1312520847 1312520846 1312520851 4049976#0 4049976#1 4061171#0 4061171#3 4061171#4 4061171#8 4061171#10 4061171#11 4061171#13 395162136#0 395162136#2 395162136#3 240276611#3 240276611#4"/>
    </vehicle>
    <vehicle id="moto9" type="moto_motorcycle" depart="27.00">
        <route edges="584713307#5 544779497#2 544779497#3 544779497#4 544779497#6 544779497#7 1101086543#0 1101086543#1 1101086543#2 608726566#0 608726566#1 608726566#2 608726566#3 608726566#4 97977113#1 97977113#3 1101965831 122125022 1101232929 1100965168 1105338506 152606694#0 152606694#1 152606694#2 34919486#0 34919486#4 34919486#8 34919486#14 610590168 610590167#0 610590167#1 610590166 125295514#0 148088823#0 148088823#1 160507867 1004599528 1004599524 1349802481#0 1349802482#0 1349802482#1 1349802482#2 1349802482#3 4724399#0 4724399#2 612345683#0 1168282990#0 1168282990#2 460562830#2 460562830#4 1027411533#0 815935645#1 964927196#0 815935648 1278419690 880659958#0 -744464490#2 815935646#0 815935646#1 815935646#2 815935646#4 815935646#7 815935646#8 815935646#10 156355401#12 156355401#13 156355401#14 160203547#0 160203547#2 160203547#6 160203547#7 4330406#0 968202459#0 968202459#3 968202459#6 395162136#0 395162136#2 395162136#3 456799550#1 456799550#2 456799550#3 456799550#6 456799550#7 456799550#8 1102995649#1 8035595#1 70192788#0 159313102#3 744773020#0 70192794#0 70192794#2 70192794#4 70192794#5 70192794#6 70192794#7 70192794#9 70192794#10 165709366#0 -101918059#11 -101918059#10 -101918059#9"/>
    </vehicle>
    <vehicle id="moto10" type="moto_motorcycle" depart="30.00">
        <route edges="584708378#2 -584708378#2 -295763765#0 -249631254#4 -249631254#3 -249631254#2 -249631254#0 -590463654#6 -590463654#3 -590463654#2 -590463654#0 -38771288#3 -38771288#2 -38771288#1 -38771288#0 -1101553958#1 -1101943036#9 1275281134 1375544800 607737070#0 607737070#2 607737070#4 607737070#5 607737070#7 607737070#9 607737070#10 607737062#0 607737062#1 1278191051 1101553951#0 1375544799 1278191041 -38771273#7 -38771273#6 -38771273#5 38771273#5"/>
    </vehicle>
    <vehicle id="moto11" type="moto_motorcycle" depart="33.00">
        <route edges="-610827880#10 610827880#10 610827880#11 610890132#0 152666107#0 152666107#3 152666107#4 152666107#5 -589898781#2 -589898781#1 -589898781#0 28187843#0 28187843#1 28187843#2 28187843#3 611269708#1 610890130#13 612347912#1 4724293#0 4724293#2 4724293#3 1101363568#0 1101363568#1 1312477637 35077601#0 35077601#1 35077601#2 4724374#0 4724374#1 4724374#5 4724374#8 4724374#11 609299336#0 609299336#2 609299336#3 609299336#5 609299336#6 609299336#7 1101346490#0 1101346490#2 1101553930 1101553931 156345559#0 156345559#1 156345571#0 156345571#2 156345571#8 156345571#10 156345571#12 1101346489 152607437#0 152607437#11 611291479#0 611291479#1 611291478#0 611291480#0 611291480#1 1101528871 744489634 611284774#0 611284774#1 -611284772#1 -1058657648 -852711782#2 -852711782#1 -852711782#0 -855429446 852711781 1056990347 725692781#0 725692781#2 725692781#4 1383773475#0 1383773475#2 1383773475#3 411814342#1 411814342#3 343197571#2 1058687159#0 1058687159#2 1058687159#3 1101929285 1102462008 1101515920 1102462009 4049989#0 4049989#2 1101929286#0 1101929286#1 4061146#0 4061146#1 4061146#3 4061146#11 4061146#13 4061146#16 4061146#19 608428080#0 608428079#1 607200442#0 607200442#4 1101929287 1084380669#0 1383728102#0 131667025 608417330 608417329 160507866 148088770 208303963 272967664#1 208303954#1 208303954#3 208303954#5 34919240#1 152606664#0 584025493#1 203944308#1 203944308#2 203944308#4 203944308#5 203944308#6 203944308#7 203944308#9 203944308#11 203944308#12 203944308#13 203944308#14 544776772#12 584026119 -288716009#7"/>
    </vehicle>
    <vehicle id="moto12" type="moto_motorcycle" depart="36.00">
        <route edges="726167513#0 612345685#3 1168282987 4724399#0 4724399#2 612345683#0 1168282990#0 1168282990#2 460562830#2 460562830#4 1027411533#0 815935645#1 964927196#0 815935648 1278419690 880659958#0 -744464490#2 815935646#0 815935646#1 815935646#2 815935646#4 815935646#7 815935646#8 815935646#10 156355401#12 156355401#13 156355401#14 160203547#0 160203547#2 160203547#6 160203547#7 4330406#0 968202459#0 968202459#3 968202459#6 395162136#0 395162136#2 395162136#3 456799550#1 456799550#2 456799550#3 456799550#6 456799550#7 456799550#8 1102995649#1 8035595#1 70192788#0 159313102#3 744773020#0 70192794#0 70192794#2 70192794#4 70192794#5 70192794#6 70192794#7 70192794#9 70192794#10 70192794#11 70192794#12 70192794#13 70192794#14 70192794#15 70192794#16 70192794#17 70192794#18 70192794#19 70192794#22 70192794#24 70192794#25 70192794#26 70192794#27 70192794#28 70192794#29 70192794#30 70192794#31 70192794#32 70192794#34 70192794#36 70192794#38 70192794#39 70192794#41 70192794#42 70192794#43 70192794#44 70192794#45 70192794#46 70192794#47 160213193#1 160213193#2 160213193#3 718339013#0 718339013#2 718339013#4 718339013#5 718339013#6 718339013#7 718339013#9 718339013#11 718339013#13 718339013#14 970083543#2 970083543#3 970083543#4 970083543#5 970083543#7 970083543#8 970083543#9 970083543#11 970083543#13 1101553912 1101553914 717661056#0 475136903#0 475136903#1 234578803#0 234578803#2 -772065986#2 1427148486 1427148476 1427148478 611316821#0 611316821#1 611316821#4 -611325126#3 -611325126#0"/>
    </vehicle>
    <vehicle id="moto13" type="moto_motorcycle" depart="39.00">
        <route edges="-208145448#8 208145448#8 181033300#21 181033300#23 181033300#27 1101762128 1101553905#0 1101553905#1 1101553907 1101553906 157774325#0 157774325#4 1101553902 1101751292 1101553901#0 121088456#0 1102233959#2 121088455#0 1102233963#0 1102233963#1 1102233963#2 1102233963#3 1102233963#4 1102233963#6 1102233963#8 1102233963#9 1102233963#11 1102233963#13 -584727030#1 -584727030#0 1102233964#0 1102233964#2 208455439#0 -208455452#3"/>
    </vehicle>
    <vehicle id="moto14" type="moto_motorcycle" depart="42.00">
        <route edges="590142853#0 35161359#0 35161355#1 1101582957#3 1101582957#4 1101582957#6 35161348#0 35161348#1 35161348#2 815935657#1 1278419689#0 1278419688 1101582955 964640011 1312515728#0 1312515728#3 1312515728#4 1101929294#1 156345557#1 156345557#3 156345557#4 1101929292#0 1101929292#1 1101929292#2 610292115#0 4010071#0 4010071#1 4010071#2 4010071#4 4010071#8 4010071#9 4010071#12 4010071#14 4010071#20 309750224#0 309750224#1 309750224#2 455786713#0 455786713#1 455786713#3 455786713#4 455786713#7 455786713#9 455786713#12 455786713#13 309750238#0 309750238#1 309750238#2 309750238#3 966783771#0 966783771#3 1101346492#0 1101346492#1 609299335#0 609299335#3 609299335#4 609299335#8 609299335#10 609299335#12 1101363565#0 1101363565#1 1101363565#2 309750209#0 309750209#3 309750209#5 309750209#8 152819206#0 152819206#2 152819206#4 1101363566 1101363567 1102641119 1101346500 1102641120 1101346499 1102641118 731143611#0 731143611#1 153028843#0 -610890130#13 -611269708#5 -28187843#4 -28187843#2 -28187843#1 -28187843#0 -726036908 -4019915#7 -4019915#6 -4019915#5 -4019915#4 -4019915#3 -4019915#2 -4019915#1 -4019915#0 455779394#4 455779394#5 455779394#6 455779394#7 455779394#8 730262763#2 730262765 729887183#0 4019888#0 4019888#2 4019888#3 4019888#4 4019888#6 4019888#7 4019888#9 4009576#1 4009576#2 4009576#4 4009576#5 4009576#6 4009576#7 4009576#10 4009576#11 4009576#12 4009576#13 249631205 589930712#0 -249631277 249631277"/>
    </vehicle>
    <vehicle id="moto15" type="moto_motorcycle" depart="45.00">
        <route edges="584709949#1 295763794#5 249631393#1 249631393#3 249631393#5 249631393#6 -584708385#3 -584708385#2 -584708385#1 590425843#1 1383746331#0 964927192#15 964927192#16 482359729#0 163860170 1375554799#2 1375554799#3 1375554799#5 1341859445#0 1341859445#1 1341859445#2 1341859445#3 1341859445#4 1341859445#5 1341859445#6 1341859445#7 1341859445#8 1341859445#9 1341859445#10 1341859445#11 1341859445#12 1341859445#13 1341859445#14 1341859445#15 1341859445#16 1341859445#17 1341859445#18 1341859445#19 1341859445#20 4009576#1 4009576#2 4009576#4 4009576#5 4009576#6 4009576#7 4009576#10 4009576#11 4009576#12 4009576#13 4009576#14 4009576#15 4009576#16 541532915#4 541532915#7 411188760#1 411188760#6 266636828#0 266636828#1 188157480#0 188157480#3 411821067#3 411821067#4 721665022#1 609041744#0 609041744#2 609041744#5 609041744#7 609041744#9 1101363574#2 1101363576 1101363575#0 1101363575#1 1101363575#2 309750223#0 35132176#0 4330403#0"/>
    </vehicle>
    <vehicle id="moto16" type="moto_motorcycle" depart="48.00">
        <route edges="176729781#0 -27733540#1 -27733540#0 1341859445#9 1341859445#10 1341859445#11 1341859445#12 1341859445#13 1341859445#14 4330414#0 4330414#1 4330414#2 1274999060#3 1274999060#4 1274999061#0 1274999061#1 1274999061#2 1274999061#3 1274999061#4 1274999061#5 152666107#0 152666107#3 152666107#4 152666107#5 -589898781#2 -589898781#1 -589898781#0 28187843#0 28187843#1 28187843#2 28187843#3 611269708#1 610890130#13 612347912#1 4724293#0 4724293#2 4724293#3 1101363568#0 1101363568#1 1312477637 35077601#0 35077601#1 35077601#2 4724374#0 4724374#1 4724374#5 4724374#8 4724374#11 4004854#0 566428685#0 566428685#1 566428685#2 566428685#3 566428685#4 566428685#5 566428685#8 566428685#13 566428685#15 566428685#16 566428685#17 566428685#19 566428685#20 857521304#0 857521304#2 729978622#0 729978622#1 452728838#0 452728838#1 270475120#0 610610809#0 610610809#2 610610809#4 165725233 1101363561 1101363557#0 590168826#0 1375845697#0 584962312#0 1312520847 1312520846 1312520851 4049976#0 4049976#1 4061171#0 4061171#3 4061171#4 4061171#8 4061171#10 4061171#11 4061171#13 395162136#0 395162136#2 395162136#3 456799550#1 456799550#2 75954650#0 583998193 75954651#0"/>
    </vehicle>
    <vehicle id="moto17" type="moto_motorcycle" depart="51.00">
        <route edges="-721634493 368640491#3 368640491#4 121088453#1 1101553901#0 1101553901#1 1101553901#2 1101553904 4061048 121088461#0 121088461#4 121088461#6 121088461#8 1101762127 157774316#1 1101762128 157774318#0 157774318#1 157774318#2 157774318#3 1102701208#0 1102701208#1 97673194 157774332#0 157774332#1 157774332#2 97673184 157774310#0 1101346507#2 159814198#0 1101346511#0 1101346511#1 1101346513#1 718324543 437377541#0 4330472#0 205214950#0"/>
    </vehicle>
    <vehicle id="moto18" type="moto_motorcycle" depart="54.00">
        <route edges="584731529#0 -208638524#1 -208638524#0 721676734 241288342#0 241288342#2 241288342#3 241288342#4 241288342#6 721684014#0 181033300#12 181033300#14 181033300#16 181033300#18 181033300#20 181033300#21 181033300#23 35039366 157774318#1 157774318#2 157774318#3 1102701208#0 1102701208#1 97673194 157774332#0 157774332#1 157774332#2 97673184 157774310#0 1101346507#2 159814198#0 1101346511#0 1101346511#1 1101346513#1 718324543 437377541#0 725687816#0 725687816#5 725687816#10 725687816#14 725687816#15 725687816#16 205146918#0 1101363578 1101346514 1101363579 609289809#0 835086345#1 835086345#2 835086345#3 835086345#4 700435675#0 700435675#1 700435675#2 700435675#4 700435675#6 584719792 259883522#0 259883522#1 259883523#2"/>
    </vehicle>
    <vehicle id="moto19" type="moto_motorcycle" depart="57.00">
        <route edges="594275688#1 -594275689#3 -594275689#1 -594275689#0 -176729731#8 -176729731#6 -176729731#5 -176729731#4 -176729731#2 -176729731#0 1101553949#2 1278191054 607748735#0 607748735#1 607748735#2 607748735#3 1278191050#0 1278191050#2 1278191050#4 1278191050#5 1278191050#6 1278191050#8 1383746342 1278776677#0 1278776677#1 1278776677#2 1278776677#4 1101553951#0 1101553951#1 1101553951#2 4061147#0 4061147#2 4061147#3 4061147#5 4061147#7 4061147#9 1101553954#0 1101553954#1 607737073#0 607737073#2 607737073#7 1101582893#1 1459042513#0 1459042513#1 1459042517#0 1375544802 1383746339 538546600#0 538546600#1 4004874#2 4004874#3 4004874#5 4004874#6 4004874#7 4004874#8 -610890132#17 -610890132#16 -610890132#13 -610890132#12 -610890132#10 -4049941#5 -4049941#4 -4049941#2 -4049941#1 -4049941#0 176729697#1 -28187843#4 -28187843#2 -28187843#1 -28187843#0 -726036908 -4019915#7 -4019915#6 -4019915#5 -4019915#4 -4019915#3 -4019915#2 -4019915#1 -4019915#0 585477646#6 585477646#7 1482924543#3 411821074 584719785#1 753769682 967530871 1101363573 753769640 753769684 4019871#0 1412100392 208149507#3 584719789#0 159814200#2 1101346509 1101346507#0 97671298#0 157774329 1102701209#0 1102701209#1 157774328 157774331 157774323#0 157774323#1 157774323#2 157774323#3 157774323#4 1102701205 1101553905#1 1101553907 1101553906 1101553908 1101762127 157774330#0 157774330#4 157774330#6 157774330#8 157774330#10 157774330#12 157774330#13 157774330#15 157774330#16 157774330#17 157774330#19 157774330#20 608732488#0 1383966746#0 1383966746#1 1383966746#4 1383966746#6 589873471#0 208638571#0"/>
    </vehicle>
    <vehicle id="moto20" type="moto_motorcycle" depart="60.00">
        <route edges="38771277#2 38771288#5 -249631235 -249631327#1 607737073#7 1101582893#1 1459042513#0 1459042513#1 1459042517#0 1375544802 1383746339 538546600#0 538546600#1 4004874#2 4004874#3 4004874#5 4004874#6 4004874#7 4004874#8 610890130#0 610890130#1 610890130#5 610890130#7 610890130#8 610890130#9 610890130#11 610890130#13 612347912#1 4724293#0 4724293#2 4724293#3 1101363568#0 1101363568#1 1312477637 4004875 1101363566 1101363567 1102641119 731143612#0 731143612#1 4050114#0 4050114#2 4050114#8 1102221193#0 1101346501 1102221194 97673186#0 97673186#1 97673186#4 97673186#5 288715986#0 288715986#2 608422528 608410933#1 608410933#2 608410933#3 612346467#0 612346467#1 8039368#0 8039368#1 8039368#2 8039368#4 8039368#5 8039368#6 8039368#7 8039368#8 8039368#9 8039368#10 8039368#11 8039368#12 8039368#13 8039368#14 -160213181"/>
    </vehicle>
    <vehicle id="moto21" type="moto_motorcycle" depart="63.00">
        <route edges="-451752845#4 -451752845#3 -451752845#2 -451752845#0 -584726376#8 -584726376#7 -584726376#5 -584726376#4 -584726376#2 -584726376#0 592440636 -121088452#16 -121088452#15 -121088452#14 -121088452#13 -121088452#12 -121088452#11 -121088452#10 -121088452#8 -121088452#7 -121088452#6 -121088452#5 -121088452#4 -121088452#3 -121088452#2 -121088452#1 -1102233963#13 -1102233963#11 -1102233963#9 -1102233963#8 -1102233963#6 -1102233963#4 -1102233963#3 -1102233963#2 -1102233963#1 -1102233963#0 584727021#2 4330450#0 4330450#1 4330450#2 1102233960 1102233961 4330543#0 4330543#2 4330543#4 1101553901#2 1101553904 4061048 121088461#0 121088461#4 234578805#0 234578820#0 234578820#1 234578820#3 234578820#4 234578820#5 234578820#7 -584731548"/>
    </vehicle>
    <vehicle id="moto22" type="moto_motorcycle" depart="66.00">
        <route edges="-201950744#3 715821282#7 715821282#10 715821282#11 715821282#12 610630117#0 610630117#6 610630117#10 610630116 1100965173#0 1100965172 610630114#0 610630111#0 -97695073#7 -478087858"/>
    </vehicle>
    <vehicle id="moto23" type="moto_motorcycle" depart="69.00">
        <route edges="-208636966#3 35074277#3 684872855#2 684872855#3 1101363581#0 1101363581#1 261879978#0 205290544#0 34828860#0 34828860#1 34828860#2 34828860#3 34828860#4 34828860#5 34828860#6 34828860#8 34828860#9 34828860#10 34828860#11 34828860#14 34828860#16 34828860#17 34828860#18 34828860#19 34828860#20 34828860#21 34828860#22 34828860#23 34828860#24 34828860#25 34828860#26 34828860#28 34828860#29 1482924543#1 455779394#0 455779394#1 455779394#2 455779394#3 4019915#0 4019915#1 4019915#2 4019915#3 4019915#4 4019915#5 4019915#6 4019915#7 726036908 28187843#0 28187843#1 28187843#2 28187843#3 152797856#0 4049941#0 4049941#1 4049941#2 4049941#4 4049941#5 610890132#10 610890132#11 610890132#13 610890132#15 610890132#17 610890131#0 610890131#1 152673859#0 152673859#3 152673859#4 152673859#5 152673859#6 152673859#7 152673859#8 152673859#9 152673859#11 411814373#4 411814373#5 4050044#1 4050044#2 4050044#4 4050044#6 4050044#7 4050044#9 4050044#10 4050044#12 4050044#15 4050044#16 4050044#18 4050044#19 585546568#0 585546568#1 585546568#2 585546568#4 585546555#0 1102174134 585546571#0 -585546559#16 -300053721#5 -300053721#2 584724543#0 -594278460#1 -594278460#0 -594278480#8 -594278480#7 -594278480#6 -594278480#5 594278472#0 -584724523"/>
    </vehicle>
    <vehicle id="moto24" type="moto_motorcycle" depart="72.00">
        <route edges="28141285 4061115#3 610621580#2 610621580#3 610621580#4 411188761#6 411188761#8 411188761#12 729887183#0 729887183#1 729887183#2 730262764 730262763#0 585477646#0 585477646#2 585477646#3 585477646#4 585477646#5 4019915#0 4019915#1 4019915#2 4019915#3 4019915#4 4019915#5 4019915#6 4019915#7 726036908 28187843#0 28187843#1 28187843#2 28187843#3 611269708#1 610890130#13 612347912#1 4724293#0 4724293#2 4724293#3 1101363568#0 1101363568#1 1312477637 35077601#0 35077601#1 35077601#2 4724374#0 4724374#1 4724374#5 4724374#8 4724374#11 609299336#0 609299336#2 609299336#3 609299336#5 609299336#6 609299336#7 1101346490#0 1101346490#2 1101553930 1101553931 156345559#0 156345559#1 156345571#0 156345571#2 156345571#8 156345571#10 156345571#12 1101346489 152607437#0 152607437#11 611291479#0 611291479#1 611291478#0 611291480#0 611291480#1 1101528871 744489634 611284774#0 611284774#1 -611284772#1 -1058657648 -852711782#2 -852711782#1 -852711782#0 -855429446 852711781 1056990347 725692781#0 725692781#2 725692781#4 1383773475#0 1383773475#2 1383773475#3 411814342#1 411814342#3 343197571#2 1058687159#0 1058687159#2 1058687159#3 1101929285 1102462008 1101515920 1102462009 4049989#0 4049989#2 1101929286#0 1101929286#1 4061146#0 4061146#1 4061146#3 4061146#11 4061146#13 4061146#16 4061146#19 608428080#0 608428079#1 607200442#0 607200442#4 1101929287 1084380669#0 1383728102#0 131667025 608417330 608417329 160507866 148088770 208303963 272967664#1 208303954#1 208303954#3 208303954#5 34919240#1 510611521 610590169 34919758#0 34919758#2 152606660#0 152606660#4 152606660#6 1100965169#0 1101086539#0 1101086539#1 1101965831 122125021#0 122125021#5 -201950749#19 -591039431#2 -591039431#1 -249768651#17 -249768651#16 -249768651#15 -249768651#14 -249768651#12 -249768651#11 -249768651#10 -249768651#9 -719673206#3 -719673206#2 -719673206#1"/>
    </vehicle>
    <vehicle id="moto25" type="moto_motorcycle" depart="75.00">
        <route edges="-719320396#1 584715179 -584714390#0 -27114705#12 -27114705#11 -27114705#9 -27114705#8 -27114705#7 -27114705#3 -27114705#1 -27114705#0 27114678#0 27114678#1 27114678#2 27114678#3 27114678#5 590446468 745050594#0 745050596#2 745050596#3 745050596#4 1101582894#11 1101582894#12 1101582894#13 1101582894#14 1101582894#16 1101582894#17 1101582894#18 1101582894#19 1101582894#20 1101582894#21 1101582894#22 -411814373#5 -411814373#4 -152673859#11 -152673859#10 -38771738#1 -38771738#0 584721019#3 4061014#0 4061014#1 4061014#2 -4061014#2"/>
    </vehicle>
    <vehicle id="moto26" type="moto_motorcycle" depart="78.00">