<?xml version="1.0" encoding="UTF-8"?>

<!-- generated on 2026-05-08 20:24:05.494890 by Eclipse SUMO randomTrips.py v1.26.0
<configuration>
    <net-file value="rabat.net.xml"/>
    <route-file value="rabat_cars.rou.xml"/>
    <prefix value="car"/>
    <vehicle-class value="passenger"/>
    <period value="1.5"/>
</configuration>
-->

<!-- generated on 2026-05-08T20:23:44.821235+00:00 by Eclipse SUMO duarouter 1.26.0
<duarouterConfiguration xmlns:xsi="http://www.w3.org/2001/XMLSchema-instance" xsi:noNamespaceSchemaLocation="http://sumo.dlr.de/xsd/duarouterConfiguration.xsd">

    <input>
        <net-file value="rabat.net.xml"/>
        <route-files value="trips.trips.xml"/>
    </input>

    <output>
        <output-file value="rabat_cars.rou.xml"/>
        <alternatives-output value="NUL"/>
    </output>

    <time>
        <begin value="0"/>
        <end value="3600.0"/>
    </time>

    <report>
        <no-warnings value="true"/>
        <ignore-errors value="true"/>
        <no-step-log value="true"/>
    </report>

</duarouterConfiguration>
-->

<routes xmlns:xsi="http://www.w3.org/2001/XMLSchema-instance" xsi:noNamespaceSchemaLocation="http://sumo.dlr.de/xsd/routes_file.xsd">
    <vType id="car_passenger" vClass="passenger"/>
    <vehicle id="car0" type="car_passenger" depart="0.00">
        <route edges="288715979#0 -288715979#0 -590785499#16 -590785499#15 -590785499#14 -590785499#11 34923119#3 34923119#5 34923119#7 34923119#8 -203944308#14 -203944308#13 -203944308#12 -203944308#11 -203944308#9 -203944308#8 -203944308#6 -203944308#5 -203944308#4 -203944308#2 -203944308#1 -584761839 160403546#20 160403546#22 610590169 510611522 610590168 610590167#0 610590167#1 610590166 125295514#0 148088823#0 148088823#1 160507867 1349802486 1349802485#0 1349802485#1 510612260#0 510612260#3 606437962 510612261 1383728114 42305069#0 42305069#2 365618919#1 365618919#2 365618919#4 365618919#5 590081362#1 607200443#0 607200443#3 607200443#6 607200443#7 607200443#9 965613758#22 965613758#24 965613758#27 4330480#0 4330480#2 1274615116 1102462010 1312714882 1312714883 172506327#0 172506327#1 114291077#0 114291077#2 114291077#4 114291077#5 114291077#6 1101515922 609618986#0 609618986#1 609618986#2 590150504#0 590150504#1 590150504#2 35034744 35160898 1383759661 343197570 1383759660 1277818404#0 1277818404#1 1277818404#2 1101528872 1102590927 609590323#0 1443589085 1426778386#1 1384048029 -159312013#4 -159312013#3 -159312013#1 -159312013#0 1426778389 555597062#5 555597062#6 555597062#7 555597091#0 555597080 584007015#0 1101582951#1 1278167001 555597094 555597063#0 1427965297#0 1427965299 35160556#0 35160556#2 35160556#4 1427967349 834232627 834232629 608452585 -608452588#4 -608452588#3 -608452588#1 585546550#0 1101528875 585546582#0 585546582#1 637129420#0 637129420#1 -722209607 585546569#0 1102174133 585546581 1102174134 585546571#0 -585546559#16 -585546559#14 -585546559#12 -585546559#10 -585546559#9 -585546559#7 -585546559#4 -585546559#2 -585546559#1 -585546559#0 592453497#0 592453497#1 1101553941#0 1101553941#1 585546552#0 585546576#0 585546576#1 1278191058#0 607748735#2 607748735#3 1278191049 1101553950 176729731#0 176729731#2 176729731#3 176729731#5 176729731#6 176729731#8 -594275681#3 -1268506660"/>
    </vehicle>
    <vehicle id="car1" type="car_passenger" depart="1.50">
        <route edges="-584714394#1 584714400#5 305613175#8 305613175#10 4061147#3 4061147#5 4061147#7 4061147#9 1101553954#0 1101553954#1 607737073#0 607737073#2 607737073#7 1101582893#1 1459042513#0 1459042513#1 1459042517#0 1375544802 1383746339 538546600#0 538546600#1 4004874#2 4004874#3 4004874#5 4004874#6 4004874#7 4004874#8 610890130#0 610890130#1 610890130#5 610890130#7 610890130#8 610890130#9 610890130#11 610890130#13 612347912#1 4724293#0 4724293#2 4724293#3 1101363568#0 1101363568#1 1312477637 4004875 1101363566 1101363567 1102641119 731143612#0 731143612#1 4050114#0 4050114#2 4050114#8 1102221193#0 1101346501 1102221194 97673186#0 97673186#1 97673186#4 97673186#5 288715986#0 288715986#2 4330424#0 1275242966#0 97673189#0 97673189#1 97673189#2 97673189#3 97673189#6 97673189#8 97673189#9 97673189#11 -445902196#13"/>
    </vehicle>
    <vehicle id="car2" type="car_passenger" depart="3.00">
        <route edges="4330417#2 -34839568#2 -725687816#14 -725687816#13 -725687816#8 -725687816#4 -966783769#8 -966783769#5 -966783769#4 -411821072#7 -411821072#6 34828860#24 34828860#25 34828860#26 34828860#28 34828860#29 1482924543#1 455779394#0 455779394#1 455779394#2 455779394#3 4019915#0 4019915#1 4019915#2 4019915#3 4019915#4 4019915#5 4019915#6 4019915#7 726036908 28187843#0 28187843#1 28187843#2 28187843#3 611269708#1 610890130#13 34871725#1 1058654654 8131834#1 1377751964#0 1377751964#1 1101553932#3 1101553932#4 1101553932#5 1101553934 176729741#0 1378009624#0 538758000#1 538758000#4 35133816#0"/>
    </vehicle>
    <vehicle id="car3" type="car_passenger" depart="4.50">
        <route edges="610285109#0 236714603#0 1383544573#3 270475121#1 1351160846#0 1351160846#3 583999760#0 583999760#2 583999760#3 -411814342#3 -411814342#2 -1383773475#3 -1383773475#2 -1383773475#0 -725692781#5 -725692781#3 -725692781#0 -1056990347 -852711781 855429446 852711782#0 852711782#1 852711782#2 1058657648 611284772#0 611284773#2 609612250#1 1175903284 35163135#0 610292115#0 4010071#0 4010071#1 4010071#2 4010071#4 4010071#8 4010071#9 4010071#12 4010071#14 4010071#20 309750224#0 309750224#1 309750224#2 455786713#0 455786713#1 455786713#3 455786713#4 455786713#7 455786713#9 455786713#12 455786713#13 309750238#0 309750238#1 309750238#2 309750238#3 966783771#0 966783771#3 1101346492#0 1101346492#1 609299335#0 609299335#3 609299335#4 609299335#8 609299335#10 609299335#12 1101363565#0 1101363565#1 1101363565#2 309750209#0 309750209#3 309750209#5 309750209#8 1313381333 160452799 392136732 609289786#0 609289786#2 266636990#0 266636990#1 266636990#2 160452798#0 160452798#4 1101363573 753769640 753769684 4019871#0 4019871#5 4019871#6 966783769#1 966783769#5 34762170#0 34828601#4 34828601#5 205214950#0 205214950#1 -207076155#0"/>
    </vehicle>
    <vehicle id="car4" type="car_passenger" depart="6.00">
        <route edges="101918064#2 589841800#18 719971523 687997384#3 687997384#5 687997384#7 607752363#0 607752363#3 -101917649#5 -101917649#4 70192794#7 70192794#9 70192794#10 70192794#11 70192794#12 70192794#13 70192794#14 70192794#15 70192794#16 70192794#17 70192794#18 70192794#19 70192794#22 70192794#24 70192794#25 70192794#26 70192794#27 70192794#28 70192794#29 70192794#30 70192794#31 70192794#32 70192794#34 70192794#36 70192794#38 70192794#39 70192794#41 70192794#42 70192794#43 70192794#44 70192794#45 70192794#46 70192794#47 160213193#1 160213193#2 160213193#3 718339013#0 718339013#2 718339013#4 718339013#5 718339013#6 718339013#7 718339013#9 718339013#11 718339013#13 718339013#14 970083543#2 970083543#3 970083543#4 970083543#5 970083543#7 970083543#8 970083543#9 970083543#11 717669907#0 717669907#1 -1460542440 -592800192#2 -592800192#1 -592800192#0 -592800191#2 -234578784#9 -234578784#7 -234578784#6 -234578784#5 -234578784#4 234578788#2 717697833#0 -1337703001"/>
    </vehicle>
    <vehicle id="car5" type="car_passenger" depart="7.50">
        <route edges="-4330448#3 4330448#0 4330448#4 4330448#5 4330448#6 -176729648#4 -176729648#3 -176729648#1 -176729648#0 4004874#5 4004874#6 4004874#7 4004874#8 610890130#0 610890130#1 610890130#5 610890130#7 610890130#8 610890130#9 610890130#11 610890130#13 612347912#1 4724293#0 4724293#2 4724293#3 1101363568#0 1101363568#1 1312477637 4004875 1101363566 1101363567 1102641119 731143612#0 731143612#1 4050114#0 4050114#2 4050114#8 1102221193#0 1101346501 1102221194 97673186#0 97673186#1 97673186#4 97673186#5 288715986#0 288715986#2 4330424#0 1275242966#0 97673189#0 97673189#1 97673189#2 97673189#3 97673189#6 97673189#8 97673189#9 97673189#11 97673189#12 97673189#13 97673189#14 97673189#16 97673189#17 97673189#19 -165709240#5 -165709181#1 -165709247#4 -165709247#3 -165709247#2 -165709247#1 -165709247#0 165707400#0 165707400#1 165708385#12 165708385#14"/>
    </vehicle>
    <vehicle id="car6" type="car_passenger" depart="9.00">
        <route edges="-1268506781 204371471#3 -611627394 204371475#3 204371475#4 204371475#5 204371475#8 204371475#9 38771273#5 38771273#6 38771273#7 1278191042 1375544798 1101553951#2 4061147#0 4061147#2 4061147#3 4061147#5 4061147#7 4061147#9 1101553954#0 1101553954#1 1101553957 1101553955 1275281135 1101943036#0 1101553958#0 38771288#0 38771288#1 38771288#2 38771288#3 38771288#5 38771288#7 38771288#8 38771288#9 38771288#11 38771288#12 38771288#14 38771288#15 38771288#16 1395780518#0 1395780518#1 -38771292#7 -38771292#6"/>
    </vehicle>
    <vehicle id="car7" type="car_passenger" depart="10.50">
        <route edges="305613175#8 -305613175#8 -305613175#7 -305613175#6 -305613175#4 -305613175#3 -305613175#1 -27114705#16 -27114705#15 -27114705#14 -27114705#12 -27114705#11 -27114705#9 -27114705#8 -27114705#7 -27114705#3 -27114705#1 -27114705#0 27114678#0 27114678#1 27114678#2 27114678#3 27114678#5 590446468 745050594#0 745050596#2 745050596#3 745050596#4 1101582894#11 1101582894#12 1101582894#13 1101582894#14 1101582894#16 1101582894#17 1101582894#18 1101582894#19 1101582894#20 1101582894#21 1101582894#22 442128913#2 442128913#3 442128913#4 442128913#7 442128913#8 442128913#9 442128913#11 442128913#13 442128913#15 442128913#17 442128913#18 152850448#7 152850448#0 152850448#1 152850448#2 152850450#0 411814366#10 411814366#11 1167748667#0 967509640#0 599416596#0 599416596#1 599416596#2 599416596#3 964994836 294851597#0 294851597#1 555597067#1 555597067#2 555597067#4 555597067#5 555597067#6 1378009588 609612244#0 609612244#1 609612244#2 408107517#0 408107517#1 1278501385 744481957#0 160540296#0 1378009581#0 1279082431#0 590146349#0 590146349#1 590146349#2 1279034480 159207429#0 159207429#1 159207429#5 1056990348#0 725692781#0 725692781#2 725692781#4 1383773475#0 1383773475#2 1383773475#3 411814342#1 411814342#3 343197571#2 1058687159#0 1058687159#2 1058687159#3 1101929285 1102462008 1101515920 1102462009 4049989#0 4049989#2 1101929286#0 1101929286#1 4061146#0 4061146#1 4061146#3 4061146#11 4061146#13 4061146#16 4061146#19 608428080#0 608428079#1 607200442#0 607200442#4 1101929287 1084380669#0 1383728102#0 131667025 608417330 608417329 160507866 148088770 208303963 272967664#1 1391595647#0 1391595647#1 584347412#0 1100961732#1 1384267778#1 965602177#0 965602177#1 965602177#2 965602177#4 965602177#5 965602177#7 965602177#8 965602177#11 965602177#12 965602177#13 965602177#14 965602177#15 965602177#16 178102577#1 178102577#2 178102577#3 178102563#0 178102563#2 178102563#3 178102563#4 178102563#5 203944300#0"/>
    </vehicle>
    <vehicle id="car8" type="car_passenger" depart="12.00">
        <route edges="-4330536#8 -4330536#7 -4330536#6 -4330536#4 -4330536#2 1101363581#1 261879978#0 261879978#2 1101363579 1101363577 725687817 1101363580 725687815#0 -725687816#17 -725687816#15 -725687816#14 -725687816#13 -725687816#8 -725687816#4 -437377541#3 718324542 1101346512 497269830#0 159814200#0 159814200#1 159814200#2 1101346509 1101346507#0 97671298#0 157774329 1102701209#0 157774311#0 157774311#3 608440335 608434916 155318426#0 -234578803#2 -234578803#1 -475136903#1 -475136903#0 717661056#1 1101553913 1101751291 -970083543#13 -970083543#11 -970083543#10 -970083543#8 -970083543#7 -970083543#5 -970083543#4 -970083543#3 -970083543#2 -718339013#14 -718339013#13 -718339013#12 -718339013#9 -718339013#7 -718339013#6 -718339013#5 -718339013#4 -718339013#2 -718339013#1 160213193#4 160213193#5 160213193#0 -70192794#47 -70192794#46 -70192794#45 -70192794#44 -70192794#43 -70192794#42 -70192794#41 -70192794#39 -70192794#38 -70192794#36 -70192794#34 -70192794#32 -70192794#31 -70192794#30 -70192794#29 -70192794#28 -70192794#27 -70192794#26 -70192794#25 -70192794#24 -70192794#22 -70192794#20 -70192794#18 -70192794#17 -70192794#16 -70192794#15 -70192794#14 -70192794#13 -70192794#12 -70192794#11 -70192794#10 -70192794#9 -70192794#8 -70192794#6 -70192794#5 -70192794#4 -70192794#3 -70192794#1 70192787#0 1058646313#0 159313096#1 159313096#2 159313096#3 590170543#0 590170543#1 590170543#2 590170543#3 590170543#7 240276611#3"/>
    </vehicle>
    <vehicle id="car9" type="car_passenger" depart="13.50">
        <route edges="584711604#1 1383746299#0 1278776688#8 1278776688#10 1278556635 1375544786#0 1375544786#1 1375544785#1 1101582892#0 1101582892#2 1101582892#3 1101582892#4 1101582892#6 1101582892#9 1101582892#10 1101582892#13 1101582892#14 1101582892#16 1101582892#17 1101582892#18 1459042517#4 1459042517#5 1459042513#0 1459042513#1 1459042517#0 1375544802 1383746339 538546600#0 538546600#1 4004874#2 4004874#3 4004874#5 4004874#6 4004874#7 4004874#8 610890130#0 610890130#1 610890130#5 610890130#7 610890130#8 610890130#9 610890130#11 610890130#13 612347912#1 4724293#0 4724293#2 4724293#3 1101363568#0 1101363568#1 1312477637 4004875 1101363566 1101363567 1102641119 731143612#0 731143612#1 4050114#0 4050114#2 4050114#8 1102221193#0 1101346501 1102221194 97673186#0 97673186#1 97673186#4 97673186#5 288715986#0 288715986#2 4330424#0 1275242966#0 97673189#0 97673189#1 97673189#2 97673189#3 97673189#6 97673189#8 97673189#9 97673189#11 97673189#12 97673189#13 97673189#14 97673189#16 97673189#17 97673189#19 -165709240#5 -165709181#1 -165709247#4 -165709247#3 -165709247#2 -165709247#1 -101918059#9"/>
    </vehicle>
    <vehicle id="car10" type="car_passenger" depart="15.00">
        <route edges="584706635#2 -259529165#7 8062267#0 8062267#1 390081119#0 390081119#1 641021124#2 641021124#4 411821073#0 -411821075#5 -411821075#3 -411821075#2 -411821075#1 -411821075#0 4019915#0 4019915#1 4019915#2 4019915#3 4019915#4 4019915#5 4019915#6 4019915#7 726036908 28187843#0 28187843#1 28187843#2 28187843#3 152797856#0 4049941#0 4049941#1 4049941#2 4049941#4 4049941#5 610890132#10 610890132#11 610890132#13 610890132#15 610890132#17 610890131#0 610890131#1 152673859#0 152673859#3 152673859#4 152673859#5 152673859#6 152673859#7 152673859#8 152673859#9 152673859#11 411814373#4 411814373#5 590421622#0 590421622#2 590421622#3 590421622#4 590421622#5 590421622#7 590421622#8 -745050596#4 -745050596#3 -745050596#2 176729748 745050595#1 -590446468 -27114678#5 -27114678#3 -27114678#2 -27114678#1 -27114678#0 27114705#0 27114705#1 27114705#3 27114705#5 27114705#8 27114705#9 27114705#11 27114705#12 27114705#13 27114705#15 27114705#16 27114705#17 27114705#19 38771272#0 38771272#1"/>
    </vehicle>
    <vehicle id="car11" type="car_passenger" depart="16.50">
        <route edges="-610630110#0 744788035#1 610630114#2 1100965170 1100965173#0 610630113 -964909012#4 -964909012#2 -456762541#7 -456762541#6 -456762541#4 -456762541#2 -456762541#1 -456762541#0 34921392#0 34921392#2 1105338506 1101086540#0 1101086540#1 1100965169#0 152606687#0 152606687#1 152606687#2 152606687#4 608726567#1 608726567#3 1101086541#0 34923119#0 34923119#1 34923119#2 34923119#3 34923119#5 34923119#7 34923119#8 -203944308#14 -203944308#13 -203944308#12 -203944308#11 -203944308#9 -203944308#8 475146250#0 -288716008#6"/>
    </vehicle>
    <vehicle id="car12" type="car_passenger" depart="18.00">
        <route edges="726167513#0 612345685#3 612345685#6 352875137#1 352875137#2 352875137#4 1004599527 1004599525 1004858873 608417330 608417329 160507866 148088770 208303963 272967664#1 1391595647#0 1391595647#1 584347412#0 1100961732#1 1384267778#1 965602177#0 965602177#1 965602177#2 965602177#4 965602177#5 965602177#7 965602177#8 96153108#1 96153108#2 96153108#3 96153108#4 96153108#6 96153108#8 96153108#9 256119190#0 256119190#1 256119190#2 256119190#3 -611309325"/>
    </vehicle>
    <vehicle id="car13" type="car_passenger" depart="19.50">
        <route edges="-208145449#1 241288340#6 4330458#1 -1102233964#15 -1102233964#13 -1102233964#12 -1102233964#11 -1102233964#10 -1102233964#9 -1102233964#8 -1102233964#7 -1102233964#5 -1102233964#4 -1102233964#3 208455439#0 -208455452#3"/>
    </vehicle>
    <vehicle id="car14" type="car_passenger" depart="21.00">
        <route edges="590131075#1 590131075#2 590131075#3 156355402#11 181033308#0 181033308#1 70192790#2 70192790#3 1312477648 1312477649 1312477644 -736510874 736510873#0 736510873#2 736510873#4 4049983#0 4049983#2 -590168826#0 353546311#0 1101363563#0 1101363563#1 584001891#1 731133408#0 3997580#1 353546314#1 1312477638#0 1312477638#1 1312477642 857521314#0 1376122605 857521313#0 1101553928#0 1101553928#1 272257536 1101553929 152825733#0 -566428685#21 -566428685#19 -566428685#17 -566428685#16 -566428685#15 -566428685#14 -566428685#9 -566428685#5 -566428685#4 -566428685#3 -566428685#2 -566428685#1 -566428685#0 967530870#0 967530870#1 592440643#1 1101363565#2 309750209#0 309750209#3 309750209#5 309750209#8 152819206#0 152819206#2 152819206#4 1101363566 1101363567 1102641119 1101346500 1102641120 1101346499 1102641118 731143611#0 731143611#1 153028843#0 -610890130#13 -611269708#5 -28187843#4 -28187843#2 -28187843#1 -28187843#0 -726036908 -4019915#7 -4019915#6 -4019915#5 -4019915#4 -4019915#3 -4019915#2 -4019915#1 -4019915#0 411821075#0 411821075#1 411821075#2 329593789#5 329593789#6 329593789#8 329593789#9 -205146917#7 -205146917#6 -205146917#3 589911299#0 249631264#1"/>
    </vehicle>
    <vehicle id="car15" type="car_passenger" depart="22.50">
        <route edges="584708386#1 584708386#2 584708386#3 590425843#1 1383746331#0 964927192#15 964927192#16 482359729#0 731717090#0 730287327 409948553 409948549#0 409948549#1 -1375554809 -409948550#14 -409948550#13 4330398#0 4330398#1"/>
    </vehicle>
    <vehicle id="car16" type="car_passenger" depart="24.00">
        <route edges="176729781#4 1314561969 1341859445#14 4330414#0 4330414#1 4330414#2 1274999060#3 1274999060#4 1274999061#0 1274999061#1 1274999061#2 1274999061#3 1274999061#4 1274999061#5 152666107#0 152666107#3 152666107#4 152666107#5 -589898781#2 -589898781#1 -589898781#0 28187843#0 28187843#1 28187843#2 28187843#3 611269708#1 610890130#13 612347912#1 4724293#0 4724293#2 4724293#3 1101363568#0 1101363568#1 1312477637 35077601#0 35077601#1 35077601#2 4724374#0 4724374#1 4724374#5 4724374#8 4724374#11 4004854#0 566428685#0 566428685#1 566428685#2 566428685#3 566428685#4 566428685#5 566428685#8 566428685#13 566428685#15 566428685#16 566428685#17 566428685#19 566428685#20 857521304#0 857521304#2 729978622#0 729978622#1 452728838#0 452728838#1 270475120#0 610610809#0 610610809#2 610610809#4 165725233 1101363561 1101363557#0 590168826#0 1375845697#0 584962312#0 1312520847 1312520846 1312520851 4049976#0 4049976#1 4061171#0 4061171#3 4061171#4 4061171#8 4061171#10 4061171#11 4061171#13 395162136#0 75954661#0 75954661#11"/>
    </vehicle>
    <vehicle id="car17" type="car_passenger" depart="25.50">
        <route edges="-721634501#0 -584727028#1 -584727028#0 -1102233963#6 -1102233963#4 -1102233963#3 -1102233963#2 -1102233963#1 -1102233963#0 584727021#2 4330450#0 4330450#1 4330450#2 1102233960 1102233961 4330543#0 4330543#2 4330543#4 1101553901#2 1101553904 4061048 121088461#0 121088461#4 121088461#6 121088461#8 1101762127 157774316#1 1101762128 157774318#0 157774318#1 157774318#2 157774318#3 1102701208#0 1102701208#1 97673194 157774332#0 157774332#1 157774332#2 97673184 157774310#0 1101346507#2 159814198#0 1101346511#0 1101346511#1 1101346513#1 718324543 437377541#0 4330472#0 205214950#0 205214950#1 205214950#2"/>
    </vehicle>
    <vehicle id="car18" type="car_passenger" depart="27.00">
        <route edges="584731514 208145441#3 609022798#0 181033300#4 181033300#6 181033300#7 181033300#8 181033300#10 181033300#11 181033300#12 181033300#14 181033300#16 181033300#18 181033300#20 181033300#21 181033300#23 35039366 157774318#1 157774318#2 157774318#3 1102701208#0 1102701208#1 97673194 157774332#0 157774332#1 157774332#2 97673184 157774310#0 1101346507#2 159814198#0 1101346511#0 1101346511#1 1101346513#1 718324543 437377541#0 725687816#0 725687816#5 725687816#10 725687816#14 725687816#15 725687816#16 205146918#0 1101363578 1101346514 1101363579 609289809#0 835086345#1 835086345#2 835086345#3 835086345#4 700435675#0 700435675#1 700435675#2 700435675#4 700435675#6 584719792 259883522#0 259883522#1"/>
    </vehicle>
    <vehicle id="car19" type="car_passenger" depart="28.50">
        <route edges="594275676#2 -594275676#2 -594275676#0 -594275691#2 -594275691#1 -594275691#0 -176729731#10 -176729731#8 -176729731#6 -176729731#5 -176729731#4 -176729731#2 -176729731#0 1101553949#2 1278191054 607748735#0 607748735#1 607748735#2 607748735#3 1278191050#0 1278191050#2 1278191050#4 1278191050#5 1278191050#6 1278191050#8 1383746342 1278776677#0 1278776677#1 1278776677#2 1278776677#4 1101553951#0 1101553951#1 1101553951#2 4061147#0 4061147#2 4061147#3 4061147#5 4061147#7 4061147#9 1101553954#0 1101553954#1 607737073#0 607737073#2 607737073#7 1101582893#1 1459042513#0 1459042513#1 1459042517#0 1375544802 1383746339 538546600#0 538546600#1 4004874#2 4004874#3 4004874#5 4004874#6 4004874#7 4004874#8 -610890132#17 -610890132#16 -610890132#13 -610890132#12 -610890132#10 -4049941#5 -4049941#4 -4049941#2 -4049941#1 -4049941#0 176729697#1 -28187843#4 -28187843#2 -28187843#1 -28187843#0 -726036908 -4019915#7 -4019915#6 -4019915#5 -4019915#4 -4019915#3 -4019915#2 -4019915#1 -4019915#0 585477646#6 585477646#7 1482924543#3 411821074 584719785#1 753769682 967530871 1101363573 753769640 753769684 4019871#0 1412100392 208149507#3 584719789#0 159814200#2 1101346509 1101346507#0 97671298#0 157774329 1102701209#0 1102701209#1 157774328 157774331 157774323#0 157774323#1 157774323#2 157774323#3 157774323#4 1102701205 1101553905#1 1101553907 1101553906 1101553908 1101762127 157774330#0 157774330#4 157774330#6 157774330#8 157774330#10 157774330#12 157774330#13 157774330#15 157774330#16 157774330#17 157774330#19 157774330#20 608732488#0 1383966746#0 1383966746#1 -241288192#0 208638571#1"/>
    </vehicle>
    <vehicle id="car20" type="car_passenger" depart="30.00">
        <route edges="38771274#3 -204371466#1 -204371466#0 719352835 739907909#5 719351323 1383746342 1278776677#0 1278776677#1 1278776677#2 1278776677#4 1101553951#0 1101553951#1 1101553951#2 4061147#0 4061147#2 4061147#3 4061147#5 4061147#7 4061147#9 1101553954#0 1101553954#1 607737073#0 607737073#2 607737073#7 1101582893#1 1459042513#0 1459042513#1 1459042517#0 1375544802 1383746339 538546600#0 538546600#1 4004874#2 4004874#3 4004874#5 4004874#6 4004874#7 4004874#8 610890130#0 610890130#1 610890130#5 610890130#7 610890130#8 610890130#9 610890130#11 610890130#13 612347912#1 4724293#0 4724293#2 4724293#3 1101363568#0 1101363568#1 1312477637 4004875 1101363566 1101363567 1102641119 731143612#0 731143612#1 4050114#0 4050114#2 4050114#8 1102221193#0 1101346501 1102221194 97673186#0 97673186#1 97673186#4 97673186#5 288715986#0 288715986#2 4330424#0 4330424#2 4330424#3 4330424#5 1313302752#1 1313302752#2 1058028975#0 1058028975#3 1101751323 1101553919 1101751324 1101553918 1101751322 160213186#0 160213186#1 160213186#2 1101553917#0 1101553917#1 160213177 1101553916 1101553915#1 1101553915#2 -160213186#2"/>
    </vehicle>
    <vehicle id="car21" type="car_passenger" depart="31.50">
        <route edges="-451752840#2 -1057084036 -451752839#1 -451752839#0 718339013#4 718339013#5 718339013#6 718339013#7 718339013#9 718339013#11 718339013#13 718339013#14 970083543#2 970083543#3 970083543#4 970083543#5 970083543#7 970083543#8 970083543#9 970083543#11 970083543#13 1101553912 1101553914 717661056#0 475136903#0 475136903#1 234578803#0 234578803#2 -772065986#2 1427148486 1427148476 1427148478 611316821#0 -208145480#9 -208145480#8 157774330#4 157774330#6 157774330#8 208145440#1 -584731550#4 -584731539#3 -584731539#1"/>
    </vehicle>
    <vehicle id="car22" type="car_passenger" depart="33.00">
        <route edges="-201950744#6 -201950744#5 -201950744#3 715821282#7 715821282#10 715821282#11 715821282#12 610630117#0 610630117#6 610630117#10 610630116 1100965173#0 610630113 -964909012#4 -964909012#2 -208468388#5 -208468388#4 -208468388#2 208468394#0 34919486#4 34919486#8 34919486#14 610590168 610590167#0 610590167#1 610590166 125295514#0 148088823#0 148088823#1 160507867 1004599528 1004599524 1349802481#0 1349802482#0 1349802482#1 1349802482#2 1349802482#3 4724399#0 4724399#2 612345683#0 1168282990#0 1168282990#2 460562830#2 460562830#4 1027411533#0 815935645#1 964927196#0 815935648 1278419690 880659958#0 -744464490#2 815935646#0 815935646#1 815935646#2 815935646#4 815935646#7 815935646#8 815935646#10 156355401#12 156355401#13 156355401#14 160203547#0 160203547#2 160203547#6 160203547#7 4330406#0 968202459#0 968202459#3 968202459#6 395162136#0 395162136#2 395162136#3 456799550#1 456799550#2 456799550#3 456799550#6 456799550#7 456799550#8 1102995649#1 8035595#1 70192788#0 159313102#3 744773020#0 70192794#0 70192794#2 70192794#4 70192794#5 70192794#6 70192794#7 70192794#9 70192794#10 70192794#11 70192794#12 70192794#13 70192794#14 70192794#15 70192794#16 70192794#17 70192794#18 70192794#19 70192794#22 70192794#24 70192794#25 70192794#26 70192794#27 70192794#28 70192794#29 70192794#30 70192794#31 70192794#32 70192794#34 70192794#36 70192794#38 70192794#39 70192794#41 70192794#42 70192794#43 70192794#44 70192794#45 70192794#46 70192794#47 160213193#1 160213193#2 160213193#3 718339013#0 718339013#2 718339013#4 718339013#5 718339013#6 718339013#7 718339013#9 718339013#11 718339013#13 718339013#14 970083543#2 970083543#3 970083543#4 970083543#5 970083543#7 970083543#8 970083543#9 970083543#11 970083543#13 1101553912 1101553914 717661056#0 475136903#0 475136903#1 475136903#2 475136901 -475136901 -475136903#2"/>
    </vehicle>
    <vehicle id="car23" type="car_passenger" depart="34.50">
        <route edges="-208636971 -205290544#8 -205290544#4 34828860#0 34828860#1 34828860#2 34828860#3 34828860#4 34828860#5 34828860#6 34828860#8 34828860#9 34828860#10 34828860#11 34828860#14 34828860#16 34828860#17 34828860#18 34828860#19 34828860#20 34828860#21 34828860#22 34828860#23 34828860#24 34828860#25 34828860#26 34828860#28 34828860#29 1482924543#1 455779394#0 455779394#1 455779394#2 455779394#3 4019915#0 4019915#1 4019915#2 4019915#3 4019915#4 4019915#5 4019915#6 4019915#7 726036908 28187843#0 28187843#1 28187843#2 28187843#3 611269708#1 -610890130#11 -610890130#10 -610890130#8 -610890130#7 -4050239#7 -4050239#6 -4050239#5 -4050239#4 -4050239#3 -4050239#2 -4050239#1 -4050239#0 -584721019#4 4061014#0 4061014#1 38771737#1 38771737#2 38771737#3 38771737#4 38771737#5 279393678 -584721026#0"/>
    </vehicle>
    <vehicle id="car24" type="car_passenger" depart="36.00">
        <route edges="28141285 -4061115#2 -4061115#1 -4061115#0 176729685#1 176729685#2 1109978191 1102443590#2 1102443591 610285207#0 1109978194#0 205146917#0 205146917#2 205146917#3 205146917#6 205146917#7 205146917#8 411821073#0 609270686#0 411821072#0 411821072#2 411821072#3 411821072#5 411821072#7 966783769#1 966783769#5 966783769#6 -437377541#3 718324542 1101346512 497269830#0 159814200#0 159814200#1 159814200#2 1101346509 1101346507#0 97671298#0 157774329 1102701209#0 157774311#0 157774311#3 608440335 608434916 155318426#0 -234578803#2 -234578803#1 -475136903#1 -475136903#0 717661056#1 1101553913 1101751291 -970083543#13 -970083543#11 -970083543#10 -970083543#8 -970083543#7 -970083543#5 -970083543#4 -970083543#3 -970083543#2 -718339013#14 -718339013#13 -718339013#12 -718339013#9 -718339013#7 -718339013#6 -718339013#5 -718339013#4 -718339013#2 -718339013#1 160213193#4 160213193#5 160213193#0 -70192794#47 -70192794#46 719676914 716732038#1 -719676915"/>
    </vehicle>
    <vehicle id="car25" type="car_passenger" depart="37.50">
        <route edges="-719318751 165730940#1 165726655#5 165727229#0 165727229#2 165727208#0 165727208#1 165727208#3 -165727475#1 -165727475#0 -165727246#1 -165727246#0 1058028975#3 1101751323 1101553919 1101751324 1101553918 1101751322 1101553920 1102174136#0 160213182#0 1312652331#2 608410947#0 608410947#1 172993765#0 172993765#1 608410927#0 97673187#0 288715984#2 1376133238 1101751327 176729721#0 1101346504 152500586#0 152500586#5 152500586#6 152500586#7 1102641120 1101346499 1102641118 731143611#0 731143611#1 153028843#0 -610890130#13 -610890130#11 -610890130#10 -610890130#8 -610890130#7 -4050239#7"/>
    </vehicle>
    <vehicle id="car26" type="car_passenger" depart="39.00">